96
whada
O	5.12863302	1.34648466	4.45816708
H	4.78202868	0.43215278	4.63892746
H	4.46870518	1.69626594	3.77315879
O	1.52442276	-1.11849940	3.63729310
H	1.50272179	-0.12554775	3.67152143
H	0.74288261	-1.41880250	3.07103515
O	1.28336334	6.17584991	6.04713154
H	0.93087900	5.87552834	5.14986277
H	0.93632317	4.70641136	7.16770124
O	8.04021263	-1.44139874	6.25591469
H	7.15736961	-1.64100063	6.72443628
H	8.79657269	-1.65220678	6.81832933
O	5.15775776	5.99792671	4.19153118
H	4.47009611	6.70665312	4.24331284
H	4.75287867	5.45465183	3.45593929
O	7.49605989	4.28998709	1.44595647
H	7.33373737	3.34829593	1.77420497
H	6.56419325	5.21691847	10.32941628
O	3.47928786	4.96908855	2.00953388
H	2.59075117	4.81248474	2.35139489
H	3.55609727	6.77303171	1.76640630
O	9.32963276	8.15997314	1.78590441
H	8.68033886	7.85265064	2.41305661
H	9.48260689	7.30519104	11.01367474
O	5.43023157	8.01885033	7.23979902
H	5.22679853	8.27264214	8.15771198
H	5.02300739	7.11162758	7.11935949
O	0.21515003	5.38602066	3.80031753
H	-0.08589750	4.47723198	4.02666664
H	-0.60500097	5.84655046	3.70742512
O	0.55376208	8.46019554	7.34281921
H	0.84509259	-0.45054513	7.32011747
H	0.86290467	7.96197176	6.53492260
O	7.16897917	2.02790594	2.94424224
H	7.30240345	1.33453035	2.26023126
H	6.40246296	1.74817622	3.50247645
O	7.50349855	0.16563179	10.82750702
H	7.79708004	0.63945055	9.98495293
H	8.28463840	-0.36969680	11.11374760
O	1.63959539	1.36348629	7.25155306
H	1.99771869	1.24851143	6.37947369
H	1.30053520	2.28248739	7.42271376
O	3.91280627	5.76196384	6.91518974
H	2.26426268	5.97890282	6.11939573
H	4.29531765	5.03102779	6.34454298
O	-0.75788778	1.37123144	9.10040379
H	8.61051178	1.46909547	8.23275280
H	-0.07235122	0.71553862	8.84054947
O	0.01753661	3.77903557	10.41407490
H	-0.21789826	2.93165755	9.95696068
H	8.38862896	4.18013716	10.88105202
O	7.67162466	6.84728718	3.70090961
H	7.77690268	7.31621647	4.57313442
H	6.79895258	6.30242395	3.83072042
O	4.17924738	8.81570435	4.86709690
H	3.19102335	8.59269524	4.77831364
H	4.52616024	8.54996872	5.70807409
O	5.10076571	8.97437954	9.77048969
H	4.27585745	10.57159805	9.40488338
H	5.95046759	9.27190781	10.24389458
O	3.86566997	4.53120565	9.23015213
H	3.80859494	3.58778787	9.19580936
H	3.40818071	4.83492804	10.80997944
O	3.98234129	1.52873659	8.91715431
H	3.19949365	11.09308910	8.41681194
H	5.41633701	2.26550269	5.92107248
O	0.67534280	6.43483973	9.73373604
H	0.53138918	6.87337112	8.85888672
H	1.53581333	6.73560190	10.12107944
O	9.13305569	2.90023994	4.49428272
H	8.96669292	2.53400135	5.41688156
H	8.48425388	2.48146224	3.92142749
O	0.64090276	3.88271737	7.64730072
H	0.50184840	4.39950180	9.78780460
H	9.51992226	3.97291350	7.50834274
O	3.79699087	2.17185235	2.31739879
H	3.96370268	1.65893173	11.38045311
H	4.07041073	3.11268187	2.06464577
O	3.17127228	-2.19466853	11.45319366
H	2.60812140	-1.88676000	2.39036393
H	4.58996773	-1.35152709	10.42387009
O	6.06857443	5.56424141	9.63882351
H	4.88292933	4.78693295	9.24686909
H	5.81137037	6.49727249	9.80833435
O	1.62372053	1.53350151	3.99832559
H	0.82703209	2.14441180	3.93659997
H	2.20704317	1.72745097	3.23885727
O	8.03484917	1.11714923	6.61975384
H	7.89839745	0.15602465	6.46166277
H	7.11472368	1.46465027	6.59874344
O	7.62810850	4.79712391	7.33408833
H	6.97509956	4.04963207	7.03594494
H	7.09300327	5.11572599	8.07532024
O	5.25610781	2.91688728	6.66777229
H	4.90754557	2.42843866	7.46930408
H	3.69261980	5.24547195	7.75966644
96
whada
O	5.11516809	2.46834350	3.96444917
H	5.60124922	1.69663870	3.56074810
H	4.20894480	2.46487355	3.58280516
O	1.64378417	1.41682041	1.21806109
H	1.89648950	1.88100028	2.03468847
H	1.21723521	2.24236846	0.80719036
O	1.34934449	6.80213547	4.88827085
H	1.36003983	7.62829971	5.47326088
H	0.60379487	6.19057560	4.94935560
O	9.09510803	0.68713582	4.58387470
H	8.20483780	0.25385424	4.45403385
H	9.53498554	-0.03662346	5.08287525
O	4.67508030	6.66853094	3.32781482
H	4.21713877	6.98923969	2.54804635
H	5.22768307	5.90976858	3.09101343
O	9.51644707	6.73645401	1.30163586
H	9.89337349	7.66670465	1.34702563
H	9.07023811	6.72629976	10.26840973
O	3.59134841	7.35197926	0.88309288
H	2.73078442	7.82891989	0.90636772
H	4.23132515	7.90470743	0.34390888
O	7.90356302	10.00438213	0.37088084
H	7.58104515	9.21349049	0.88175344
H	8.70748520	9.64915371	9.78120518
O	4.37040901	8.52631378	5.07252645
H	4.77068138	8.40897274	5.93378830
H	4.58452797	7.68443775	4.58354759
O	0.78981161	8.89543438	1.94604373
H	0.79288566	8.93503380	2.90133810
H	0.67068750	9.82444382	1.75669193
O	1.99988770	9.57207489	6.26960754
H	1.95542455	0.67036563	5.93977308
H	2.85464096	9.19706059	5.90844393
O	6.43834925	4.59185314	2.65033031
H	6.48314810	4.17386198	1.76091027
H	5.96855974	3.87730956	3.11948037
O	7.48655176	2.73563218	10.23567390
H	7.84422636	2.60205984	9.30111313
H	7.54417753	1.78898335	10.51070404
O	1.84734929	2.29961228	6.17504311
H	2.71483707	2.12713909	6.66329956
H	1.92066240	3.23832512	6.03143263
O	3.03745651	4.97351980	5.76948786
H	2.42875504	5.76226568	5.82292557
H	3.57541752	5.19569874	4.98065519
O	-0.43680802	1.63439906	8.50932121
H	9.94694901	1.71847725	7.66580963
H	0.10734853	0.89188528	8.87529564
O	0.37137261	3.85037661	9.62075424
H	0.08220730	2.97938442	9.06423283
H	9.40249920	4.06663561	10.11759472
O	7.18271446	7.93065739	2.01192498
H	8.15211391	7.63767815	1.93192947
H	6.61417627	7.43690062	1.34316802
O	6.36104393	10.11200047	3.62093043
H	6.54084301	9.33013439	3.02293110
H	5.66011715	9.73643875	4.19337606
O	4.87494802	9.06887531	7.85296249
H	4.85416412	9.95738888	7.44291735
H	5.81799364	8.80984879	7.92098379
O	5.38851166	4.19582653	9.61065578
H	6.00616598	3.45497704	9.87683201
H	4.51987743	4.19548798	10.09990597
O	4.29629326	1.57148659	6.53111219
H	4.46102142	11.65903759	5.55927896
H	4.74043131	2.55241537	6.88379574
O	1.12385643	9.54740334	8.94071102
H	1.42022872	9.21874237	8.09058571
H	1.83663344	9.97697735	9.46001816
O	8.64703560	5.65799284	3.78509712
H	7.89635134	5.00024700	3.64296961
H	8.89876270	5.84698296	2.87579465
O	-0.18501408	6.45126534	8.05583382
H	0.32567593	5.82546616	8.67889881
H	8.73604298	6.28572369	8.27177715
O	3.06807113	4.57651997	0.85846680
H	2.17734146	4.36885357	10.33502865
H	3.19314289	5.53222275	0.82254922
O	4.10919094	0.05856640	10.64226341
H	3.53661323	0.80402637	0.71503860
H	4.67280293	0.18187460	9.87296104
O	6.90489388	6.18891811	8.72850132
H	6.35426712	5.45098972	9.17076492
H	6.61641788	6.16131639	7.81606483
O	1.84591389	3.32300448	2.91690969
H	1.90136206	3.57764006	3.89147854
H	2.46387100	3.89016390	2.40625691
O	8.10974598	3.00557065	4.84376335
H	8.68688583	2.21807456	4.80662155
H	8.57142830	3.71314645	5.32433081
O	6.81495571	7.44241762	6.15091705
H	6.94406271	8.26788235	5.61410189
H	7.50746775	6.90312433	5.73374271
O	5.16253996	3.89391303	7.07224703
H	5.11649132	3.96767187	8.03605747
H	4.43413973	4.49876928	6.81399155
96
whada
O	2.42566347	2.73773241	0.86439806
H	2.35835767	2.15167379	1.69607186
H	1.53172362	3.01201057	0.74101734
O	-0.81481719	1.21280289	1.66964817
H	-0.58051306	2.16442180	1.95834291
H	-1.75655460	1.26321697	1.34776092
O	1.07492518	6.47778606	6.25465918
H	0.22816032	6.97122049	6.11249733
H	-1.77009737	8.30790615	7.49249315
O	6.13953972	0.88851172	4.57492399
H	5.68364096	0.29525995	5.26690817
H	7.09655237	0.66941118	4.72722387
O	3.40268564	6.92519808	2.08946967
H	2.50134420	7.06348276	1.72317731
H	4.06080008	5.34830713	1.54814458
O	6.74878120	6.74601507	0.15919182
H	7.11970329	7.37086535	0.81492603
H	5.99139404	7.18445873	9.63851547
O	0.53271049	7.40481901	1.24141967
H	-0.33030343	7.31467867	1.84190881
H	0.38804182	8.26917839	0.71098655
O	6.72202492	11.12574005	0.29514959
H	6.14946413	10.44840527	0.75509995
H	7.06452942	10.74476814	9.31789780
O	1.47185242	9.94382572	5.56164837
H	1.97878778	10.72590637	5.90499115
H	2.23922610	9.31309700	5.50003672
O	-1.53665471	7.19702053	2.94766402
H	-2.06428432	6.48130798	3.27936339
H	-1.34705949	7.93469763	3.62058568
O	-0.85441113	9.61148071	4.19514322
H	-0.13328078	-0.01579442	4.79334259
H	-0.83877218	10.16375065	3.36997724
O	4.19973326	4.36127424	1.49576163
H	5.16650820	4.08379269	0.48178858
H	3.32027984	3.93613672	1.28851473
O	5.90099716	3.70574450	9.55708122
H	5.17524385	3.66740370	8.49794102
H	6.08773279	2.80285406	9.74675083
O	0.89152122	3.95278811	5.27130556
H	1.46172309	3.22432208	5.52860117
H	0.78515989	3.96210909	4.29371357
O	3.24560428	7.72234058	4.89773989
H	1.03219366	5.59777403	5.71961498
H	3.33948040	7.00922585	3.09182930
O	-1.28266406	2.89456511	6.57348108
H	7.72160149	3.32640219	6.40962172
H	-0.56975651	3.29026866	5.96590948
O	-1.13549185	4.25577497	8.96705055
H	-1.24954748	3.91528273	8.02339935
H	7.81456041	4.34047699	9.34563637
O	5.08027697	9.58624935	2.01805234
H	5.48376369	9.80816841	2.87182617
H	4.76662207	8.66257000	2.13044977
O	2.47067356	10.43295860	2.42457199
H	3.43931365	10.30109882	2.59627414
H	1.95592225	10.07342339	3.19845343
O	2.93834329	10.49367237	8.49834156
H	2.98921061	11.12874126	7.69939756
H	2.99825573	11.08659554	9.27976131
O	2.66440511	5.53279829	8.14906311
H	2.09474134	5.24932814	8.99230957
H	1.97749507	5.90108824	7.53073359
O	3.04505038	2.32632113	6.19332981
H	3.59635878	11.85662746	5.48385572
H	3.74330926	2.88832092	6.85252237
O	-1.86661506	10.15035248	8.01047134
H	-1.61467147	10.86970901	7.44476604
H	-1.04065740	9.97370148	8.50555992
O	7.12138224	4.94686270	3.33443856
H	6.90778351	4.57879066	4.24383354
H	6.44820690	4.50263405	2.77936602
O	-1.57823968	7.50136232	6.94150829
H	-1.78701639	6.75112295	7.59844589
H	6.36197424	7.61271334	6.60477686
O	0.92419648	5.04581594	0.43321612
H	0.17764652	4.74999952	9.67188263
H	0.76502550	6.03966093	0.60365313
O	0.29638869	-0.23183763	9.66036415
H	0.23429927	0.33903652	0.58310300
H	1.17116368	-0.06110615	9.22403622
O	4.29327202	7.69958067	9.08940411
H	3.44077635	7.19017458	8.82178402
H	4.01586390	8.58989429	9.07005024
O	-0.12644231	3.92025614	2.60209107
H	-0.98556131	4.24586010	2.79009151
H	0.22913092	4.50283527	1.83501089
O	6.16213942	3.61764312	5.47098541
H	6.02260876	2.68332720	5.14847851
H	5.44304419	3.65018535	6.12482119
O	5.39022589	7.82059288	6.56513023
H	3.99972081	7.63477802	5.53198957
H	5.04346180	7.94227314	7.56826735
O	4.54161167	3.70055866	7.55874586
H	3.86046815	4.42337990	7.61870003
H	2.50493240	7.19416142	5.38732338
96
whada
O	6.13018370	1.82609653	3.66941977
H	6.09113455	1.10585463	3.03708148
H	5.28345537	1.91352260	4.15888596
O	1.93444502	0.75074011	2.25296688
H	1.69120538	1.66152561	2.52979803
H	2.26624060	0.87919617	1.31337905
O	1.97422588	5.12999153	4.76468754
H	2.95517516	5.22485971	4.77367258
H	1.55067527	5.18096066	5.63296270
O	9.30636024	1.06021142	4.24706364
H	8.57009125	0.85696328	4.89180756
H	10.06440353	0.54284549	4.63630915
O	5.63355064	6.33231354	1.53343952
H	5.87775469	5.69171715	0.90452564
H	6.37615204	6.18117046	2.16488624
O	8.39748287	6.01961851	0.44582501
H	8.59244537	6.71718788	1.09247935
H	8.06151867	6.50471544	9.46970844
O	2.17705798	7.12251854	0.17442943
H	1.65346086	7.27956963	0.97338313
H	2.78704333	7.85820341	0.03823660
O	7.81806087	9.07666492	0.53146386
H	7.71680117	8.72740650	1.43433511
H	8.79001808	9.16196346	10.15368462
O	3.62457967	7.58417845	5.39636898
H	4.03759384	8.15598106	4.70904875
H	2.72308087	7.30846357	5.03095675
O	0.80551392	8.42165661	2.25365186
H	0.23403357	8.15768433	3.05391741
H	0.85970575	9.38240528	2.36215162
O	1.19643629	9.49289799	5.74136829
H	2.16907239	-0.56142700	5.67527580
H	0.93973291	8.58904743	6.13369608
O	7.03554153	4.02514982	2.00896931
H	7.58921862	3.69615054	1.33883476
H	6.64170218	3.27594042	2.46310282
O	8.04065132	2.09505558	10.16286373
H	8.90921974	2.02930784	9.63437366
H	7.67190456	1.21167290	10.25570869
O	3.44257069	2.03411436	5.12985802
H	2.96558046	2.26552486	4.27482033
H	3.90377069	2.81613350	5.49701214
O	4.52801800	4.63059044	3.51358914
H	4.58343506	3.72805548	3.09630775
H	4.97883511	5.28916836	2.86185765
O	-0.01611378	2.16787648	7.33656120
H	9.37142754	2.52803445	6.50950336
H	0.88771713	1.83131421	7.13440657
O	0.52608377	4.41705561	8.94840813
H	0.19890106	3.65963364	8.39940262
H	9.61124325	4.78895187	9.42209625
O	7.59084845	8.57971382	3.22362638
H	8.31487656	9.01784229	3.79732585
H	7.22724056	7.94808435	3.78692102
O	4.07373476	9.21029949	2.90209484
H	4.12055206	8.25792408	2.73135519
H	3.19151831	9.55640125	2.66542363
O	6.23431301	9.11284924	8.38522911
H	6.69059038	9.63686085	7.73029375
H	6.86101007	9.07441616	9.12922764
O	5.16076565	4.17036343	9.10010719
H	5.93590307	3.59177947	9.34057713
H	4.37554550	3.89698291	9.59697437
O	7.38987589	0.00599434	6.02825689
H	7.35785341	8.89074230	5.71827126
H	6.70324516	0.40377414	5.41211224
O	0.51039553	9.50704193	9.18906212
H	0.42848375	9.69988155	8.24698067
H	1.08610904	8.76047039	9.40669537
O	9.11113358	5.75961781	3.82373595
H	8.69293213	4.90022850	3.67612600
H	10.01665878	5.40656948	4.11162281
O	0.47393954	6.66574907	6.65022850
H	0.23352344	6.15414190	7.47607756
H	9.41866016	6.96549702	6.33478451
O	2.74877191	4.29395628	0.35128331
H	1.78882039	4.25654602	9.59949684
H	2.90908003	5.23106670	0.36516756
O	3.82313871	-0.26281261	9.99877548
H	4.51582289	-0.45065656	0.80775005
H	4.34986448	-0.13433269	9.24337578
O	6.43141270	6.35011387	7.85126829
H	5.75487757	5.76872492	8.12894821
H	6.17957067	7.30271578	7.88755941
O	2.23235464	3.13529038	2.57878256
H	2.13745546	3.93696904	3.10629797
H	2.45941353	3.57882047	1.64945364
O	8.76836300	3.35809493	5.19879150
H	9.16715813	2.71461439	4.57903385
H	7.90477800	3.00578976	5.48404932
O	7.60941219	6.97846842	5.70723057
H	8.00505829	6.39203835	4.95819330
H	7.07360315	6.53920269	6.41166115
O	6.57146597	3.31720185	6.76561260
H	6.60497236	2.41978884	7.19592237
H	5.96890450	3.90951848	7.23936796
96
whada
O	6.13018370	1.82609653	3.66941977
H	6.09113455	1.10585463	3.03708148
H	5.28345537	1.91352260	4.15888596
O	1.93444502	0.75074011	2.25296688
H	1.69120538	1.66152561	2.52979803
H	2.26624060	0.87919617	1.31337905
O	1.97422588	5.12999153	4.76468754
H	2.95517516	5.22485971	4.77367258
H	1.55067527	5.18096066	5.63296270
O	9.30636024	1.06021142	4.24706364
H	8.57009125	0.85696328	4.89180756
H	10.06440353	0.54284549	4.63630915
O	5.63355064	6.33231354	1.53343952
H	5.87775469	5.69171715	0.90452564
H	6.37615204	6.18117046	2.16488624
O	8.39748287	6.01961851	0.44582501
H	8.59244537	6.71718788	1.09247935
H	8.06151867	6.50471544	9.46970844
O	2.17705798	7.12251854	0.17442943
H	1.65346086	7.27956963	0.97338313
H	2.78704333	7.85820341	0.03823660
O	7.81806087	9.07666492	0.53146386
H	7.71680117	8.72740650	1.43433511
H	8.79001808	9.16196346	10.15368462
O	3.62457967	7.58417845	5.39636898
H	4.03759384	8.15598106	4.70904875
H	2.72308087	7.30846357	5.03095675
O	0.80551392	8.42165661	2.25365186
H	0.23403357	8.15768433	3.05391741
H	0.85970575	9.38240528	2.36215162
O	1.19643629	9.49289799	5.74136829
H	2.16907239	-0.56142700	5.67527580
H	0.93973291	8.58904743	6.13369608
O	7.03554153	4.02514982	2.00896931
H	7.58921862	3.69615054	1.33883476
H	6.64170218	3.27594042	2.46310282
O	8.04065132	2.09505558	10.16286373
H	8.90921974	2.02930784	9.63437366
H	7.67190456	1.21167290	10.25570869
O	3.44257069	2.03411436	5.12985802
H	2.96558046	2.26552486	4.27482033
H	3.90377069	2.81613350	5.49701214
O	4.52801800	4.63059044	3.51358914
H	4.58343506	3.72805548	3.09630775
H	4.97883511	5.28916836	2.86185765
O	-0.01611378	2.16787648	7.33656120
H	9.37142754	2.52803445	6.50950336
H	0.88771713	1.83131421	7.13440657
O	0.52608377	4.41705561	8.94840813
H	0.19890106	3.65963364	8.39940262
H	9.61124325	4.78895187	9.42209625
O	7.59084845	8.57971382	3.22362638
H	8.31487656	9.01784229	3.79732585
H	7.22724056	7.94808435	3.78692102
O	4.07373476	9.21029949	2.90209484
H	4.12055206	8.25792408	2.73135519
H	3.19151831	9.55640125	2.66542363
O	6.23431301	9.11284924	8.38522911
H	6.69059038	9.63686085	7.73029375
H	6.86101007	9.07441616	9.12922764
O	5.16076565	4.17036343	9.10010719
H	5.93590307	3.59177947	9.34057713
H	4.37554550	3.89698291	9.59697437
O	7.38987589	0.00599434	6.02825689
H	7.35785341	8.89074230	5.71827126
H	6.70324516	0.40377414	5.41211224
O	0.51039553	9.50704193	9.18906212
H	0.42848375	9.69988155	8.24698067
H	1.08610904	8.76047039	9.40669537
O	9.11113358	5.75961781	3.82373595
H	8.69293213	4.90022850	3.67612600
H	10.01665878	5.40656948	4.11162281
O	0.47393954	6.66574907	6.65022850
H	0.23352344	6.15414190	7.47607756
H	9.41866016	6.96549702	6.33478451
O	2.74877191	4.29395628	0.35128331
H	1.78882039	4.25654602	9.59949684
H	2.90908003	5.23106670	0.36516756
O	3.82313871	-0.26281261	9.99877548
H	4.51582289	-0.45065656	0.80775005
H	4.34986448	-0.13433269	9.24337578
O	6.43141270	6.35011387	7.85126829
H	5.75487757	5.76872492	8.12894821
H	6.17957067	7.30271578	7.88755941
O	2.23235464	3.13529038	2.57878256
H	2.13745546	3.93696904	3.10629797
H	2.45941353	3.57882047	1.64945364
O	8.76836300	3.35809493	5.19879150
H	9.16715813	2.71461439	4.57903385
H	7.90477800	3.00578976	5.48404932
O	7.60941219	6.97846842	5.70723057
H	8.00505829	6.39203835	4.95819330
H	7.07360315	6.53920269	6.41166115
O	6.57146597	3.31720185	6.76561260
H	6.60497236	2.41978884	7.19592237
H	5.96890450	3.90951848	7.23936796
96
whada
O	3.56128645	5.31828308	2.71236229
H	3.90332723	4.37868071	2.69362760
H	3.11934996	5.53422689	1.90225470
O	0.54375637	2.59985781	0.91746664
H	0.71133548	4.12745857	1.15504360
H	-0.08459730	2.16180325	0.27722591
O	1.70697236	4.98241520	4.82747459
H	2.31326413	5.20447397	4.09018612
H	1.30191529	5.81282520	5.10165453
O	7.28515434	3.26950145	3.19351387
H	7.48350048	4.04287243	3.78130913
H	7.43095064	3.65695739	2.26954842
O	4.86557484	8.95112419	3.21614814
H	5.67809439	9.45328045	3.25715137
H	3.76859689	9.19999123	2.47019124
O	6.58094931	11.17074585	0.50896978
H	5.81305408	11.70211601	0.85495311
H	6.18487358	10.51962566	9.77658749
O	2.70104408	9.20309353	2.08012223
H	2.08157253	9.21217728	2.83280349
H	2.71161556	10.39376163	1.17213893
O	8.29414272	11.86364079	-1.55043924
H	7.38624287	11.94207573	-1.16137767
H	8.57264519	12.65939713	7.76168871
O	3.10096288	11.35333538	5.17216539
H	2.27243638	11.49266243	4.70920897
H	3.00172806	10.86551952	5.97635794
O	0.61382222	8.95156956	3.89281201
H	0.00337225	8.34415913	3.39693141
H	0.31414965	9.87298393	3.90749907
O	0.63181949	11.75238609	3.79868269
H	-0.22685903	2.26700521	3.95396757
H	0.66770512	11.76802635	2.80357957
O	6.19543648	6.85045719	1.41145813
H	6.58749914	5.93759537	1.42321754
H	5.57772350	7.02793407	2.16306615
O	7.27402592	4.45923996	10.61437607
H	8.16514683	4.79779196	10.16724968
H	6.62708187	4.14833689	9.96270847
O	-0.39070275	3.97105670	6.80391026
H	2.97609448	4.48842716	5.91695070
H	0.28571200	4.01953745	6.12737274
O	4.56793022	8.08120728	5.47429895
H	3.56133437	7.96986055	5.53767872
H	4.71318579	8.69399452	4.17838335
O	-0.33675408	5.79096270	8.85270214
H	9.67493629	4.52414370	7.57084846
H	0.23693387	5.75646639	9.59544563
O	0.05359041	8.40118313	7.53142834
H	-0.25841174	6.68504238	8.47060299
H	9.10078716	8.82936859	7.08716488
O	7.07476807	10.20535946	3.78416228
H	7.25246286	10.02590179	4.71266794
H	7.31745911	11.17676163	3.68095279
O	4.69395494	12.54527855	2.97692537
H	5.69129324	12.79492092	3.17791104
H	4.44065952	12.28232193	3.85984039
O	4.01565552	13.18604088	9.26916981
H	3.80327201	13.13656044	8.29751587
H	3.47295022	13.92203045	9.58116913
O	4.82999611	6.86029005	8.98234367
H	5.41080570	6.90095901	9.79739952
H	3.91022515	6.69901466	9.36872292
O	3.65920091	3.90369654	6.42500925
H	3.34810901	12.91554546	6.02617550
H	5.03094006	4.95325279	6.63603258
O	2.80456257	10.25126076	7.68550062
H	2.31719351	9.38698769	7.47552490
H	2.63935804	10.53684139	8.57087612
O	9.09769726	6.80002213	2.90847373
H	8.58447361	6.44993353	3.67976332
H	8.36417103	7.07120657	2.33110023
O	2.03059745	7.65055799	5.61900091
H	1.65748441	7.87993574	6.48142004
H	11.31650352	8.15500259	4.94581699
O	2.23278570	7.35592890	0.24513835
H	0.22522029	8.90683270	8.35752487
H	2.55963039	8.04371071	0.87438583
O	2.44598365	1.22564650	10.34874249
H	1.45723903	2.11212254	0.75714684
H	3.18638825	1.89262545	10.07589531
O	5.53187609	9.51088142	8.40381145
H	5.24735117	8.59097862	8.60397816
H	4.63971996	9.78297710	8.15113544
O	1.10679543	5.04385233	1.25667036
H	0.70631528	5.57171869	2.01381779
H	1.85667741	6.48668575	0.65286124
O	7.94521904	5.46819019	4.97752285
H	8.54440498	4.90912008	5.53807116
H	7.15877438	5.61018229	5.59407997
O	7.62531662	9.68417931	6.71690941
H	7.86134100	10.43311310	7.26871395
H	6.74041414	9.45852661	7.12904263
O	5.70685148	5.69383240	6.66895342
H	5.42202950	6.18000937	7.45850801
H	4.98601341	7.22763395	5.77414942
96
whada
O	5.87832594	2.98781252	3.29948997
H	5.69332552	2.01869416	3.54803944
H	5.05481625	3.48877645	3.43801498
O	2.51755309	1.07390237	2.50726986
H	2.50397468	2.05134511	2.38068032
H	1.70695758	0.89874649	2.01130152
O	3.39804935	4.15695715	4.13809776
H	2.73139071	4.20644665	3.40621281
H	1.01664710	7.22535563	4.56596518
O	8.40065384	0.68426597	5.08887529
H	7.92714596	0.15301192	5.73384380
H	9.37819386	0.68377674	5.31246138
O	6.33856344	7.53871584	3.16624904
H	5.87655354	8.41934776	3.15491915
H	6.23262596	7.14007902	2.21717715
O	9.52208614	6.87409401	-0.24973497
H	9.92632675	7.17107582	0.57087064
H	8.88723946	7.60445786	9.42343235
O	3.25777626	6.90066910	0.74652511
H	2.69013286	7.00918484	1.54745150
H	3.45107174	7.80093908	0.42247003
O	10.06374836	10.52052975	0.93695402
H	9.49902248	9.73523998	1.37979102
H	10.28206539	10.23627663	9.82775879
O	4.65323830	9.01736069	6.26130438
H	4.47086525	9.08631325	7.21400261
H	4.56277895	8.06743431	6.00947857
O	0.92186028	6.83733606	2.57966661
H	0.26912346	6.15450430	2.73125505
H	0.47605142	7.64059353	2.56429625
O	1.10681498	10.30733776	5.84928322
H	1.74023390	1.14331961	5.55361700
H	1.54632390	9.48786068	5.60490036
O	7.21021461	4.06001091	1.21988082
H	7.80648756	3.51651931	0.56009769
H	6.68656397	3.46986389	1.84210765
O	8.43537331	2.39731383	9.47112560
H	9.02506351	2.54662061	8.72287178
H	9.00888157	1.81314826	10.10350418
O	2.58782506	2.62256432	6.04160881
H	3.51458383	2.45983553	6.45821095
H	2.80775309	3.30697894	5.34463787
O	4.84271622	6.39872789	5.05637074
H	3.56518221	5.08917809	4.47509909
H	5.28917313	6.71724224	4.22520399
O	0.33097568	3.55825043	7.33537388
H	9.08281517	3.45927477	6.46575403
H	1.14339066	3.13365316	6.88300800
O	1.27538502	5.97948170	7.54983807
H	0.58515370	4.53917646	7.38813019
H	10.54642010	6.32453871	8.30503464
O	8.81808376	8.91678143	2.67424989
H	8.93277168	9.61609745	3.34645033
H	7.93654537	8.44523811	2.96694350
O	5.01951647	10.08272839	3.86456776
H	4.18205309	10.23087502	3.33883309
H	4.77596760	9.65508747	4.69253826
O	5.91195393	10.80066967	9.05321884
H	5.58145761	11.34552765	8.31550598
H	6.80716753	11.18938923	9.34348392
O	5.83535337	6.24840689	10.64112091
H	6.15475655	5.30920744	10.87289143
H	4.89306879	6.11749268	10.50482464
O	5.04280901	2.39436889	6.83639050
H	5.37012529	11.84546185	6.00549507
H	5.32570601	3.34563422	6.76086712
O	1.12391567	10.06415367	8.48757172
H	1.06452572	10.03460407	7.48899841
H	2.01055527	10.42607117	8.65169239
O	9.02483654	4.66697121	3.15725636
H	8.60410404	4.30565214	4.02954245
H	8.29443073	4.53488779	2.41665769
O	0.92922127	7.57867765	5.44850683
H	1.24869227	6.64079905	6.79917145
H	9.81148052	7.56121540	5.65531635
O	3.19504905	4.24098969	-0.33182743
H	2.68645000	4.23063898	8.65711689
H	2.96376491	5.16908026	0.00876266
O	3.73777175	-0.33344001	10.12418938
H	3.33013272	0.17292833	0.95531553
H	4.60800028	0.13004869	9.84029961
O	6.97584248	7.97294760	8.73417854
H	6.65886831	7.50582170	9.50682354
H	6.57402945	8.86221409	8.85360527
O	1.50703967	3.71144891	1.98501825
H	0.55977821	3.97895956	2.22781062
H	1.83814478	4.00355434	1.12607372
O	8.27635098	3.56912398	5.67226124
H	8.12070370	2.62179947	5.46186399
H	7.03590393	4.15929127	6.48663950
O	7.94578266	7.72543049	6.16442776
H	7.11932945	7.50889730	5.65991163
H	7.81302643	7.56884623	7.14678669
O	6.18877983	4.67034006	6.63198376
H	6.29197788	5.09511280	7.50281143
H	5.53631783	5.79245949	5.47135925
96
whada
O	4.05455303	1.17716861	2.34982920
H	3.71354413	0.74942833	3.13767767
H	3.54521990	0.89523739	1.57221532
O	0.47995356	0.86890274	1.65066826
H	0.74034244	1.76024437	1.51405799
H	-0.32490376	0.79265887	1.13510633
O	3.31519699	3.75166798	2.43608165
H	2.39200139	3.65378284	2.11632323
H	1.60146368	6.50496864	5.39752245
O	6.39801550	1.13216794	4.42204475
H	6.47184658	0.76887178	3.56934977
H	7.06865692	0.67315811	4.99125004
O	5.54009342	7.06444550	2.23183727
H	3.73679352	7.44495726	2.07380009
H	6.03373098	6.68329477	1.50858581
O	8.00837517	8.30618477	-1.88124204
H	8.19696712	8.80587292	-2.69912791
H	7.04459476	8.09959888	7.83894539
O	2.75478435	7.68034220	1.98332572
H	2.39266729	7.95685196	2.89289522
H	2.92184019	8.92195415	0.54758519
O	8.33993721	10.01747513	0.15701336
H	7.05097580	9.64506912	1.47195458
H	8.43640995	9.38965893	9.30616665
O	6.25635242	6.81261492	5.02813101
H	5.70749044	7.40016317	5.61883783
H	5.79715490	6.80528688	4.20988989
O	-1.11213195	7.14185476	1.61954427
H	-1.37506342	5.54019165	1.78048658
H	-0.19532399	7.28814030	1.38831127
O	0.52935153	10.95348930	4.45389652
H	0.98055518	1.96649158	4.63498926
H	0.31957000	10.90225410	3.43162155
O	5.65588903	4.37393951	0.73661017
H	6.50158978	2.97502303	-0.15322402
H	4.90894079	4.19600296	1.36739528
O	6.98142958	2.40711784	9.07803440
H	7.28205729	2.89851284	8.29063892
H	7.95846939	0.96414286	9.59332561
O	1.60791874	3.16056252	5.65663290
H	2.33921623	2.64055610	6.16798115
H	1.97643888	4.03607702	5.32828569
O	2.84166503	5.30516338	4.62353849
H	3.50242138	2.79070282	2.65356445
H	2.87666416	4.80393410	3.77514744
O	-0.93960643	3.28126740	7.22980785
H	8.43744755	3.60250974	6.37147331
H	-0.00727608	3.18442202	6.83519173
O	-0.25664440	6.00420809	8.08065796
H	-0.57166964	5.09547663	7.80551529
H	8.84120655	6.64901114	8.11760712
O	6.26012802	9.48758411	2.02880144
H	5.48727942	10.09672642	1.74792945
H	5.84746790	8.06713295	2.12404680
O	2.75835276	9.52103710	4.31598949
H	1.94017541	10.07476425	4.46033859
H	2.93181539	9.09413242	5.17298985
O	4.74970961	10.74602413	8.51506233
H	4.39550066	11.29057503	6.89266062
H	5.45851421	11.36820698	8.80395222
O	4.50310326	5.70253181	8.65573120
H	5.02122116	5.51827145	9.45268154
H	3.54196382	5.92488623	8.96081829
O	4.24594688	1.92283154	6.09198427
H	4.70627165	11.34902000	5.34402895
H	4.81112289	3.51864862	6.47947311
O	-1.26189601	10.33554077	6.01863384
H	-0.55292201	10.56237507	5.37002611
H	-1.15176404	11.04981613	6.65016079
O	8.15291023	4.52220249	2.02751470
H	7.90159750	4.52445459	3.00891995
H	6.60453320	4.34939098	1.36300445
O	0.81295353	7.06742096	5.56342888
H	0.47972134	6.71139193	6.42638016
H	9.42850876	7.71056414	4.58322048
O	1.96802580	5.95086432	-0.18812640
H	1.20754266	6.36150408	9.03761292
H	1.94374204	6.51248741	0.60141116
O	2.72230530	-0.04357576	10.00697422
H	1.87480760	0.29442954	0.58153564
H	4.04725599	0.73976946	9.19686127
O	5.33965063	8.15089703	7.23008347
H	4.87480545	7.49262810	7.76722050
H	5.08394051	9.02616405	7.52025604
O	0.86518574	3.54066634	1.07993007
H	0.05375544	3.92563915	1.47667658
H	1.23871362	4.29481030	0.64631659
O	7.48183441	3.90397763	4.64278603
H	7.34655190	2.94977260	4.42260075
H	6.61952114	4.23042631	5.12694120
O	8.60289192	7.97767162	4.16474771
H	8.54112339	7.39855289	2.60789275
H	7.78008461	7.63105965	4.61362505
O	5.11347723	4.39448023	6.18495083
H	5.05135632	4.85072088	7.03722811
H	3.69389772	4.96646118	5.09543371
96
whada
O	6.03401184	1.78909373	4.26296425
H	5.73268509	1.38326025	3.50535655
H	5.22277069	1.88151693	4.78239059
O	2.08880734	0.91662562	2.02300620
H	1.99400628	1.94411218	2.20171213
H	1.95155120	0.82372421	1.03726733
O	1.74202466	4.69554853	4.93235540
H	2.53284121	5.20600939	4.78325891
H	1.34939754	5.20564985	5.69703913
O	9.62981701	0.77845943	4.18699598
H	9.25030899	0.52769917	5.10845280
H	10.47495937	0.32876661	4.15924883
O	5.58762503	6.16816568	1.53955638
H	5.81586027	6.82467365	0.80096501
H	6.42199993	5.65997314	1.75189400
O	9.02584934	6.50616884	0.25066137
H	9.74680233	6.19564247	0.82206613
H	8.90026283	7.44094706	10.24339867
O	1.97031057	7.52672911	0.11629884
H	1.59206498	7.54619074	1.03760254
H	2.78063011	8.00900745	0.17316692
O	7.52849007	8.84599400	0.75577128
H	7.64506531	8.54757881	1.68795347
H	8.12642002	9.56890583	10.58685493
O	3.58433461	7.78642654	5.16998434
H	3.67100930	8.29940128	4.31305981
H	2.87061763	7.08795357	5.02381325
O	0.68113112	8.17708015	2.42354727
H	-0.13144733	8.04259014	2.91955805
H	0.90352440	9.12275028	2.52016807
O	1.63660002	9.38946629	6.12509966
H	2.51908612	-0.88987345	5.94047022
H	1.20626652	8.58554745	6.49827242
O	7.44637394	4.30202723	1.78514636
H	7.47594309	3.72004652	0.98955405
H	6.79634523	3.88925886	2.38519835
O	8.56467152	2.04800749	10.38667488
H	8.91686535	2.09785604	9.43928432
H	9.39249897	1.99985361	10.90645218
O	3.60968161	2.24817562	5.00725460
H	3.45255971	3.12249613	5.40423298
H	3.33377910	1.66369545	5.70245075
O	4.41024446	4.68289185	3.86408257
H	3.97789264	4.25088453	3.11335087
H	4.72632074	5.58373070	3.61735201
O	-0.19057319	2.62486529	7.25400257
H	9.25610638	2.76096439	6.37473917
H	0.23818368	1.67172849	7.23049736
O	0.39673787	4.54626417	8.90107632
H	0.09072302	3.99346399	8.10496521
H	9.62159920	5.21294451	9.16698837
O	8.01720142	8.54969215	3.40359473
H	8.02012253	9.39898300	3.85932755
H	7.55966568	7.87984753	3.97679543
O	3.92451096	9.01853085	2.92011547
H	3.84563112	8.25002098	2.38645291
H	3.27751613	9.76420784	2.59346175
O	6.35105610	9.12146950	8.27880192
H	6.96295166	9.62084675	7.67427778
H	6.86540031	8.93656445	9.05268097
O	5.36100006	3.87415957	9.26739216
H	5.40722418	4.74279261	9.77222347
H	4.51419783	3.31854844	9.34342575
O	7.52467442	0.00974477	5.97011280
H	7.44549131	8.85915661	5.78262281
H	6.78898478	0.45126376	5.36214304
O	0.32537445	9.61726856	8.88484478
H	1.03489220	9.55027866	8.24527168
H	0.68069398	9.22690392	9.71617889
O	9.20890808	5.89858341	3.64610171
H	8.93858147	4.94254160	3.68111444
H	10.13589287	5.84847593	3.86131263
O	0.74444866	6.60313797	6.65227222
H	0.77064866	6.53833246	7.64902449
H	9.68740463	6.73061514	6.45442963
O	2.66861486	4.21205997	0.07092125
H	1.76152992	4.56082058	9.55677986
H	3.22811580	5.02215576	0.05191123
O	4.25083590	-0.66735590	9.69881439
H	4.58408880	-0.12021945	0.59495687
H	4.93229771	-0.44079161	8.97433949
O	6.64116001	6.46018982	7.80426025
H	6.13754702	5.74139023	7.36495972
H	6.16134405	7.36062908	7.77643251
O	2.24163127	3.30980635	2.39902258
H	1.71001792	3.75829840	3.11737919
H	2.35262728	3.87089252	1.41613925
O	8.49542618	3.25953746	4.97600031
H	9.00953579	2.61868572	4.40346766
H	7.62822151	2.85361481	4.87278128
O	8.01319599	7.18122435	5.61939335
H	8.19517612	6.51396751	4.91175222
H	7.43494368	6.68010330	6.25813007
O	6.47281027	3.24115252	6.90660524
H	7.46371365	3.22217798	7.10969925
H	6.10901928	3.59463191	7.77551985
96
whada
O	6.36806726	1.79301000	3.57215834
H	5.79180145	1.03505230	3.29170394
H	5.75902843	2.11139059	4.28919029
O	1.48333299	1.15248430	2.03360200
H	0.65369111	1.22265232	1.58688378
H	2.16910648	0.83627099	1.34851599
O	2.17937469	6.31794167	4.81368923
H	2.08568835	7.01618147	4.12891388
H	1.30292976	6.35449696	5.27590561
O	8.47989368	0.22833353	4.91369009
H	8.82504082	1.12629068	4.75262785
H	9.09843922	-0.22814572	5.55817842
O	5.77514791	6.54809380	2.28345942
H	5.01460838	6.53493071	1.65907729
H	6.20967340	5.68319654	2.19358015
O	9.03555012	6.68244267	-0.38815495
H	9.39329433	7.21048594	-1.15215147
H	8.02078915	6.69824648	9.24546719
O	3.29287338	6.79471970	0.85749310
H	2.43810654	6.79380274	1.33486116
H	3.36337614	7.74968004	0.55130476
O	8.00056267	10.52680969	0.27060816
H	8.31467915	10.04738426	1.07162428
H	8.82609367	10.51798153	9.57193184
O	3.61441326	8.35550308	5.85141230
H	4.33939362	8.29472733	6.42463303
H	3.32692575	7.41967630	5.64791059
O	1.29352403	7.86854076	2.86634827
H	0.50628155	7.43660259	3.10204315
H	1.06976879	8.75390625	2.62281489
O	0.49009475	9.34232426	6.57788372
H	1.19809163	-0.27504751	5.97052765
H	0.58228874	8.33470249	6.59845114
O	7.31086969	4.15320635	2.30163813
H	7.39598656	3.71902919	1.40163434
H	7.00347233	3.40435481	2.85836530
O	7.59817266	3.34988213	9.24123859
H	8.51499176	3.20407224	8.97033596
H	7.16407681	2.47442532	9.10388756
O	2.63394237	1.30206037	5.55696487
H	3.33231449	0.71219832	5.20788145
H	2.66705990	2.03573632	4.88392305
O	4.65252113	5.41525745	4.67044163
H	3.63074207	5.48211384	4.84968901
H	4.89154148	6.01289654	3.85535622
O	0.03862291	2.53922296	8.12041283
H	9.57600498	2.45790315	7.13940287
H	0.75877744	1.85282540	8.25411510
O	0.76466596	5.07079601	8.10173130
H	0.45314381	4.08578253	8.07745171
H	10.09112263	5.51560211	8.82933235
O	8.03080654	9.03730679	2.54485941
H	8.32703876	9.51321507	3.36752343
H	8.26818466	8.08764172	2.77006459
O	5.38354349	9.42141533	2.68773746
H	6.41775942	9.15575123	2.60224438
H	4.98000956	8.82056808	3.34070849
O	5.76454353	9.49165821	8.59997463
H	5.76580477	10.14841270	7.84186506
H	6.34939957	9.87343502	9.27159500
O	5.12790012	4.67681360	9.36384583
H	5.98192406	4.32182980	9.67884636
H	4.40917587	4.48235369	9.95880413
O	6.27421236	1.27999258	6.50451374
H	6.83664179	10.66926479	5.88057709
H	6.31270123	2.30166841	6.49892664
O	2.11081839	10.56643105	8.44594765
H	1.70550787	9.85462379	7.85926151
H	2.65519571	11.06504154	7.76663971
O	8.57847881	6.41579437	3.41617131
H	8.01902962	6.52231264	4.20144224
H	8.32563305	5.58377695	2.98546410
O	0.08973074	6.74209547	6.41687012
H	0.42265448	5.84219980	7.02724075
H	8.95877075	6.68790865	6.34570789
O	2.54037166	4.15600014	0.76832592
H	1.99868774	3.88253045	9.83234692
H	2.52660012	5.13847828	0.57219279
O	3.82124949	-0.45753172	10.35013103
H	4.55865860	-0.39386332	1.21551526
H	4.27197075	-0.25875118	9.52594566
O	6.49972820	7.02160501	8.36593246
H	5.84142971	6.39239168	8.66417885
H	6.03971958	7.92456579	8.48141289
O	1.60459733	3.29462838	3.76806998
H	2.01880383	4.07684708	3.42051172
H	1.62718379	2.58357882	3.04799294
O	9.38954353	3.21385670	5.49787998
H	10.14845657	3.34715700	4.83717108
H	8.62378883	3.65486312	5.06689262
O	7.29747915	7.73862267	5.80140018
H	6.85134745	8.45557022	5.35962439
H	6.85119057	7.57870579	6.63227224
O	6.28360081	4.00682688	6.63995457
H	5.71254587	4.23948860	7.47266293
H	5.78393745	4.38594007	5.87376404
96
whada
O	5.12863302	1.34648466	4.45816708
H	4.78202868	0.43215278	4.63892746
H	4.46870518	1.69626594	3.77315879
O	1.52442276	-1.11849940	3.63729310
H	1.50272179	-0.12554775	3.67152143
H	0.74288261	-1.41880250	3.07103515
O	1.28336334	6.17584991	6.04713154
H	0.93087900	5.87552834	5.14986277
H	0.93632317	4.70641136	7.16770124
O	8.04021263	-1.44139874	6.25591469
H	7.15736961	-1.64100063	6.72443628
H	8.79657269	-1.65220678	6.81832933
O	5.15775776	5.99792671	4.19153118
H	4.47009611	6.70665312	4.24331284
H	4.75287867	5.45465183	3.45593929
O	7.49605989	4.28998709	1.44595647
H	7.33373737	3.34829593	1.77420497
H	6.56419325	5.21691847	10.32941628
O	3.47928786	4.96908855	2.00953388
H	2.59075117	4.81248474	2.35139489
H	3.55609727	6.77303171	1.76640630
O	9.32963276	8.15997314	1.78590441
H	8.68033886	7.85265064	2.41305661
H	9.48260689	7.30519104	11.01367474
O	5.43023157	8.01885033	7.23979902
H	5.22679853	8.27264214	8.15771198
H	5.02300739	7.11162758	7.11935949
O	0.21515003	5.38602066	3.80031753
H	-0.08589750	4.47723198	4.02666664
H	-0.60500097	5.84655046	3.70742512
O	0.55376208	8.46019554	7.34281921
H	0.84509259	-0.45054513	7.32011747
H	0.86290467	7.96197176	6.53492260
O	7.16897917	2.02790594	2.94424224
H	7.30240345	1.33453035	2.26023126
H	6.40246296	1.74817622	3.50247645
O	7.50349855	0.16563179	10.82750702
H	7.79708004	0.63945055	9.98495293
H	8.28463840	-0.36969680	11.11374760
O	1.63959539	1.36348629	7.25155306
H	1.99771869	1.24851143	6.37947369
H	1.30053520	2.28248739	7.42271376
O	3.91280627	5.76196384	6.91518974
H	2.26426268	5.97890282	6.11939573
H	4.29531765	5.03102779	6.34454298
O	-0.75788778	1.37123144	9.10040379
H	8.61051178	1.46909547	8.23275280
H	-0.07235122	0.71553862	8.84054947
O	0.01753661	3.77903557	10.41407490
H	-0.21789826	2.93165755	9.95696068
H	8.38862896	4.18013716	10.88105202
O	7.67162466	6.84728718	3.70090961
H	7.77690268	7.31621647	4.57313442
H	6.79895258	6.30242395	3.83072042
O	4.17924738	8.81570435	4.86709690
H	3.19102335	8.59269524	4.77831364
H	4.52616024	8.54996872	5.70807409
O	5.10076571	8.97437954	9.77048969
H	4.27585745	10.57159805	9.40488338
H	5.95046759	9.27190781	10.24389458
O	3.86566997	4.53120565	9.23015213
H	3.80859494	3.58778787	9.19580936
H	3.40818071	4.83492804	10.80997944
O	3.98234129	1.52873659	8.91715431
H	3.19949365	11.09308910	8.41681194
H	5.41633701	2.26550269	5.92107248
O	0.67534280	6.43483973	9.73373604
H	0.53138918	6.87337112	8.85888672
H	1.53581333	6.73560190	10.12107944
O	9.13305569	2.90023994	4.49428272
H	8.96669292	2.53400135	5.41688156
H	8.48425388	2.48146224	3.92142749
O	0.64090276	3.88271737	7.64730072
H	0.50184840	4.39950180	9.78780460
H	9.51992226	3.97291350	7.50834274
O	3.79699087	2.17185235	2.31739879
H	3.96370268	1.65893173	11.38045311
H	4.07041073	3.11268187	2.06464577
O	3.17127228	-2.19466853	11.45319366
H	2.60812140	-1.88676000	2.39036393
H	4.58996773	-1.35152709	10.42387009
O	6.06857443	5.56424141	9.63882351
H	4.88292933	4.78693295	9.24686909
H	5.81137037	6.49727249	9.80833435
O	1.62372053	1.53350151	3.99832559
H	0.82703209	2.14441180	3.93659997
H	2.20704317	1.72745097	3.23885727
O	8.03484917	1.11714923	6.61975384
H	7.89839745	0.15602465	6.46166277
H	7.11472368	1.46465027	6.59874344
O	7.62810850	4.79712391	7.33408833
H	6.97509956	4.04963207	7.03594494
H	7.09300327	5.11572599	8.07532024
O	5.25610781	2.91688728	6.66777229
H	4.90754557	2.42843866	7.46930408
H	3.69261980	5.24547195	7.75966644
