96
# Step: 0 Box:    9.8528    9.8528    9.8528 
O         5.663332698     2.330558812     3.401315300    -0.000016416     0.000129865     0.000040544
H         5.179680765     1.551981248     3.010661345    -0.000435601    -0.000930158    -0.000235952
H         4.826951545     2.807281513     3.616471734     0.000044810     0.001929461    -0.000702072
O         1.916610641     0.858515262     1.951908137    -0.000023512    -0.000090072     0.000007331
H         1.837252596     1.735631267     2.444381600    -0.000538785     0.000033247     0.000098559
H         1.318094253     1.051903643     1.201587878     0.000707280    -0.000935189    -0.000246639
O         1.842378089     6.415644898     4.964864478    -0.000306445    -0.000116815    -0.000101908
H         2.503080663     7.007368519     5.360561036     0.000223371    -0.000711112    -0.001233675
H         1.071365294     6.554269953     5.571520449     0.000454015    -0.001436628     0.000275834
O         8.682546010     0.433805355     4.681929920    -0.000070078    -0.000321992     0.000134113
H         7.964864349     0.244305503     5.291995667     0.000574873    -0.000901535     0.000970237
H         9.518163940     0.210451870     5.095691122    -0.000744299    -0.000792289    -0.001343891
O         5.285250314     6.653151877     2.586911938    -0.000253260     0.000035590    -0.000086525
H         4.650726138     6.944971733     1.915904602     0.000155495     0.000843364     0.000173587
H         5.774516332     6.009793255     2.078911137    -0.001348384    -0.000435662     0.000280081
O         9.296589660     6.273957871     0.836921153    -0.000065520    -0.000137366    -0.000251724
H         9.866491526     6.970044320     1.202840051     0.000269387    -0.000561242    -0.000575894
H         8.603618965     6.664122744    10.103378081    -0.000794209    -0.000620197     0.000188750
O         3.129410388     7.085940658     0.627284442    -0.000146998    -0.000205808    -0.000258547
H         2.452103493     7.413139423     1.237784366    -0.000932594     0.000796645     0.000890684
H         3.390362355     7.945988055     0.173333574    -0.000726043     0.000335571    -0.001370120
O         8.055648962     9.968332248     0.428792950    -0.000060994    -0.000171065    -0.000032761
H         8.011921508     9.427417766     1.284306612    -0.001528318     0.000273690     0.000259815
H         8.924618612     9.844349174     9.947778796    -0.000273767     0.000468050    -0.000801063
O         4.306704440     8.290721133     5.361503140    -0.000292296     0.000024776     0.000147589
H         4.219738433     9.086616580     5.952973174    -0.001198231     0.001162331     0.000381020
H         5.192890212     7.879290230     5.640872483    -0.000462356     0.000320008    -0.000259813
O         0.944659525     8.037531137     2.521492960     0.000076743    -0.000057599    -0.000113772
H         0.907123574     7.564072079     3.337579880    -0.000467014     0.000283399     0.000560312
H         1.482540730     8.839806441     2.578588639    -0.000516191     0.000384650    -0.000273111
O         1.159554924     9.396133908     6.068954217    -0.000062072     0.000110368     0.000148811
H         1.731614979     0.358000459     5.754995425     0.000106687     0.000622646    -0.000318028
H         1.445355212     8.607544947     5.607013680     0.000170135    -0.000594195    -0.000182937
O         6.980461065     4.600866844     1.942872083     0.000128246     0.000233487    -0.000001104
H         7.479735428     4.192994030     1.199367913    -0.001006052    -0.000193052     0.000393918
H         6.642142042     3.814851711     2.416705427    -0.000421513     0.000870668     0.000922631
O         7.301421012     2.691017337     9.727208494     0.000444413     0.000321323     0.000014532
H         7.801136090     2.601659891     8.901091754    -0.000140956     0.000026048    -0.000102917
H         7.615099071     1.826348519    10.163330933     0.000334665    -0.000512007    -0.001043899
O         2.407256228     1.898729631     5.857019041    -0.000069039     0.000068002    -0.000044039
H         3.372688011     1.966066220     6.090346773     0.000190390    -0.000378554    -0.000133160
H         2.358977796     2.468700394     5.047991917    -0.000385921     0.000873147     0.000027484
O         3.924332071     4.672644383     4.864915850     0.000053848    -0.000246567     0.000118795
H         2.961832123     4.978841482     4.665855340    -0.000265308    -0.000828626     0.000158714
H         4.380079766     5.392392794     4.464038540    -0.000258015    -0.000365637     0.000304680
O        -0.688007215     2.088261793     7.696905537    -0.000045386    -0.000265988     0.000071957
H         9.064985737     2.093861456     6.707389902     0.001031585    -0.000439683    -0.000033927
H        -0.047279606     1.385705354     8.025256456     0.000509925    -0.000865539    -0.000897084
O         0.467294175     4.400428422     8.903886193    -0.000043848     0.000001892     0.000178460
H        -0.141779301     3.634432436     8.789321090    -0.000376277    -0.000470312     0.002136891
H         9.999571119     5.008684615     9.639813489    -0.000582345    -0.000878762     0.000457810
O         7.648562893     8.417533966     2.690095759     0.000062034     0.000043044    -0.000286047
H         8.072212200     9.018663738     3.385342972     0.000120968     0.000531441    -0.000828619
H         7.952808542     7.501832186     2.865110128     0.000370334     0.000206782    -0.000262416
O         4.853604032     9.641010723     2.523987700     0.000102005    -0.000268863     0.000158335
H         5.797010871     9.272599279     2.449003842    -0.000958995    -0.000559448     0.001330078
H         4.546443089     9.054677535     3.251932521     0.000187717     0.000557921     0.000014863
O         6.017943478     8.994201374     8.257094277    -0.000185575     0.000576944     0.000050877
H         5.892893118     9.423475535     7.362616462    -0.000870729    -0.000598363    -0.000947346
H         6.893330229     9.228598702     8.660695520     0.000890200    -0.000166410    -0.000620964
O         5.139797048     4.404353304     9.371858494    -0.000033034    -0.000147555    -0.000074608
H         5.705833451     3.683982620     9.670976669    -0.001115183     0.000116815    -0.000747840
H         4.233186599     4.279210440     9.727592536    -0.000203018    -0.000541567    -0.001934013
O         5.282312591     0.974554461     6.181760231    -0.000404833    -0.000009847     0.000029254
H         5.527147030    11.064230076     5.217260985    -0.000100124    -0.000782459    -0.000167857
H         5.367240292     1.754718087     6.739169477     0.000724342     0.000703146     0.000061332
O         0.966961489    10.022436079     8.830513863    -0.000066667    -0.000208246     0.000165839
H         1.082606536     9.464574980     7.985234634    -0.000870035    -0.000487679    -0.000081883
H         1.855212592    10.018145817     9.187512786    -0.000356233    -0.000505082     0.000112054
O         9.170928544     5.604103365     3.544861573    -0.000033546     0.000282169     0.000043963
H         8.846644735     4.823282079     4.169089840     0.000155565    -0.001388041    -0.000341068
H         8.704225670     5.374299711     2.704639136    -0.000682985     0.000232801    -0.000176934
O         0.135860566     6.467903248     7.017161408    -0.000082186    -0.000131721    -0.000064654
H         0.095229265     5.619198539     7.543020278     0.001522639    -0.000630302     0.000405158
H         9.019712030     6.666831090     6.944592592     0.000044979    -0.000696983     0.000851527
O         2.841543402     4.260369419     0.643840756     0.000076355     0.000087975    -0.000102645
H         2.041448301     4.133976193     9.901912432     0.001361751    -0.000139916     0.001063811
H         2.832341741     5.209614102     0.938738758    -0.000953665    -0.000618883     0.000157570
O         3.864910958    -0.063291837     9.668999535     0.000129734     0.000000166     0.000118701
H         3.913329063     0.117019534     0.748828853     0.000579849     0.000633507    -0.000362051
H         4.783066537    -0.221505011     9.370249402    -0.000558054     0.000119835     0.000082932
O         7.057716360     6.478146472     8.882364816    -0.000150824    -0.000106522    -0.000058043
H         6.543225962     5.563946383     9.271345428    -0.000717305    -0.000444898     0.000194170
H         6.445473447     7.231150196     9.118268219     0.000922174    -0.000113711    -0.001548405
O         1.699672858     3.394057244     3.101298219    -0.000129425    -0.000119989     0.000048377
H         0.853888671     3.940811356     3.134903380    -0.000346707     0.000050216     0.000488107
H         2.258920684     3.780797946     2.395187974     0.000900058     0.000003333     0.000006194
O         7.914251522     3.463358495     4.941184251    -0.000115829    -0.000435984    -0.000075002
H         8.066269156     2.623474709     4.438623240    -0.000455791     0.000539349    -0.000368900
H         7.051599546     3.355896860     5.474282962     0.000413240    -0.000085138    -0.000190429
O         6.801268243     7.061597981     6.094106308    -0.000375740    -0.000128824    -0.000175786
H         7.146614577     6.248502234     5.575944520     0.000541973     0.000182341     0.000443644
H         6.719608307     6.658656925     6.987959861    -0.001046580     0.000252137     0.000534483
O         5.494486558     3.592870875     6.713794032     0.000247026     0.000254217     0.000169103
H         5.256807513     3.879689235     7.656777068    -0.000827660    -0.000596449    -0.002218929
H         4.902922319     4.093256320     6.108646246     0.000829666    -0.000741743     0.000292785
