96
whada
O	5.12863302	1.34648466	4.45816708
H	4.78202868	0.43215278	4.63892746
H	4.46870518	1.69626594	3.77315879
O	1.52442276	-1.11849940	3.63729310
H	1.50272179	-0.12554775	3.67152143
H	0.74288261	-1.41880250	3.07103515
O	1.28336334	6.17584991	6.04713154
H	0.93087900	5.87552834	5.14986277
H	0.93632317	4.70641136	7.16770124
O	8.04021263	-1.44139874	6.25591469
H	7.15736961	-1.64100063	6.72443628
H	8.79657269	-1.65220678	6.81832933
O	5.15775776	5.99792671	4.19153118
H	4.47009611	6.70665312	4.24331284
H	4.75287867	5.45465183	3.45593929
O	7.49605989	4.28998709	1.44595647
H	7.33373737	3.34829593	1.77420497
H	6.56419325	5.21691847	10.32941628
O	3.47928786	4.96908855	2.00953388
H	2.59075117	4.81248474	2.35139489
H	3.55609727	6.77303171	1.76640630
O	9.32963276	8.15997314	1.78590441
H	8.68033886	7.85265064	2.41305661
H	9.48260689	7.30519104	11.01367474
O	5.43023157	8.01885033	7.23979902
H	5.22679853	8.27264214	8.15771198
H	5.02300739	7.11162758	7.11935949
O	0.21515003	5.38602066	3.80031753
H	-0.08589750	4.47723198	4.02666664
H	-0.60500097	5.84655046	3.70742512
O	0.55376208	8.46019554	7.34281921
H	0.84509259	-0.45054513	7.32011747
H	0.86290467	7.96197176	6.53492260
O	7.16897917	2.02790594	2.94424224
H	7.30240345	1.33453035	2.26023126
H	6.40246296	1.74817622	3.50247645
O	7.50349855	0.16563179	10.82750702
H	7.79708004	0.63945055	9.98495293
H	8.28463840	-0.36969680	11.11374760
O	1.63959539	1.36348629	7.25155306
H	1.99771869	1.24851143	6.37947369
H	1.30053520	2.28248739	7.42271376
O	3.91280627	5.76196384	6.91518974
H	2.26426268	5.97890282	6.11939573
H	4.29531765	5.03102779	6.34454298
O	-0.75788778	1.37123144	9.10040379
H	8.61051178	1.46909547	8.23275280
H	-0.07235122	0.71553862	8.84054947
O	0.01753661	3.77903557	10.41407490
H	-0.21789826	2.93165755	9.95696068
H	8.38862896	4.18013716	10.88105202
O	7.67162466	6.84728718	3.70090961
H	7.77690268	7.31621647	4.57313442
H	6.79895258	6.30242395	3.83072042
O	4.17924738	8.81570435	4.86709690
H	3.19102335	8.59269524	4.77831364
H	4.52616024	8.54996872	5.70807409
O	5.10076571	8.97437954	9.77048969
H	4.27585745	10.57159805	9.40488338
H	5.95046759	9.27190781	10.24389458
O	3.86566997	4.53120565	9.23015213
H	3.80859494	3.58778787	9.19580936
H	3.40818071	4.83492804	10.80997944
O	3.98234129	1.52873659	8.91715431
H	3.19949365	11.09308910	8.41681194
H	5.41633701	2.26550269	5.92107248
O	0.67534280	6.43483973	9.73373604
H	0.53138918	6.87337112	8.85888672
H	1.53581333	6.73560190	10.12107944
O	9.13305569	2.90023994	4.49428272
H	8.96669292	2.53400135	5.41688156
H	8.48425388	2.48146224	3.92142749
O	0.64090276	3.88271737	7.64730072
H	0.50184840	4.39950180	9.78780460
H	9.51992226	3.97291350	7.50834274
O	3.79699087	2.17185235	2.31739879
H	3.96370268	1.65893173	11.38045311
H	4.07041073	3.11268187	2.06464577
O	3.17127228	-2.19466853	11.45319366
H	2.60812140	-1.88676000	2.39036393
H	4.58996773	-1.35152709	10.42387009
O	6.06857443	5.56424141	9.63882351
H	4.88292933	4.78693295	9.24686909
H	5.81137037	6.49727249	9.80833435
O	1.62372053	1.53350151	3.99832559
H	0.82703209	2.14441180	3.93659997
H	2.20704317	1.72745097	3.23885727
O	8.03484917	1.11714923	6.61975384
H	7.89839745	0.15602465	6.46166277
H	7.11472368	1.46465027	6.59874344
O	7.62810850	4.79712391	7.33408833
H	6.97509956	4.04963207	7.03594494
H	7.09300327	5.11572599	8.07532024
O	5.25610781	2.91688728	6.66777229
H	4.90754557	2.42843866	7.46930408
H	3.69261980	5.24547195	7.75966644
96
whada
O	2.11193442	6.54240990	3.16227102
H	2.57774901	5.73453999	2.85426474
H	1.96917498	7.20561552	2.35744643
O	0.24034533	4.49518776	1.99297535
H	-0.06371205	6.06238174	1.56995893
H	0.69693393	4.10356092	1.20785260
O	0.99233884	6.42287111	5.53450966
H	1.04480648	6.33942652	4.56181288
H	0.66546136	7.37664509	5.63533258
O	6.45899057	3.68515587	3.87897563
H	6.70688486	4.36290932	4.52551317
H	7.16381645	3.87101126	2.65612435
O	5.16027403	9.67846680	3.47794127
H	6.21637726	10.54942513	4.39934540
H	4.37739563	9.94908905	2.92111540
O	7.21830702	11.67934418	0.01459890
H	6.56437492	12.05848885	-0.67566502
H	7.00925636	10.69805717	9.81640530
O	2.72778726	10.49128342	1.94169855
H	2.08381009	10.77672195	2.61168003
H	2.81751204	11.30707169	1.24593115
O	9.91512966	12.17727757	-0.98869234
H	9.02981281	11.77970314	-0.75752711
H	9.74767017	12.91125393	8.17546272
O	3.03557444	12.66067028	5.27970314
H	2.20786476	12.55947590	4.76892185
H	3.58491230	11.87561512	5.51844406
O	0.48342097	10.44997406	3.58711553
H	-0.34608793	10.24852657	3.17050290
H	0.31602725	11.43280315	3.69455147
O	0.38484019	12.98406887	4.12914515
H	-0.08974089	3.34762907	4.98353720
H	0.33938578	13.75984097	3.55162692
O	5.52224588	5.91032028	1.62144601
H	5.89751387	6.54424238	2.26652622
H	6.26082087	5.31049919	1.22308517
O	7.64610481	3.91551423	11.56975651
H	9.14158344	4.27702808	11.64133072
H	7.49574614	3.12729621	11.02448082
O	-0.67581671	4.64027500	6.87416077
H	2.12980294	5.11271334	6.91570568
H	-0.04238599	5.30677080	6.50971079
O	4.17695189	7.52421331	4.73452759
H	3.35258603	7.07171392	4.38755846
H	4.90883827	8.79780102	3.94974780
O	-1.59092557	6.55031919	8.79358768
H	8.76161766	5.20476675	7.65393448
H	-1.23458731	6.65106487	9.72288418
O	1.63691521	10.02984905	8.10389519
H	-1.68584526	7.41580391	8.39908981
H	10.84883308	10.75866222	8.31290054
O	6.97147369	11.16293907	4.66874218
H	7.18905449	10.87040997	5.63146496
H	6.78126192	12.56554794	4.18258810
O	3.53102946	14.08300495	2.51905537
H	4.39440584	14.51187134	2.39892626
H	3.66502357	13.71120930	3.38526654
O	5.25240088	12.80277348	8.34986591
H	5.45986652	13.72049999	8.05331230
H	4.54800940	12.92438126	9.02125168
O	4.07467270	7.61727571	9.85149384
H	4.38810396	6.81690836	10.33911228
H	3.15540171	7.75511646	9.96195316
O	2.70972896	4.50698996	7.47297668
H	2.97975373	13.71108055	6.72315502
H	4.05074406	5.45507288	7.56869650
O	4.03315210	10.52088451	6.84342813
H	3.08266926	10.25403404	7.15859413
H	4.29596329	11.28512001	7.33407307
O	7.30169344	7.70271015	3.08261418
H	7.13374376	7.29375410	4.01341295
H	6.67680550	8.49745560	3.16604424
O	0.28017733	8.91367626	5.87423801
H	0.95374751	9.19257736	6.49952364
H	10.35597134	9.42306995	5.01017952
O	1.53329349	8.29863739	0.79235822
H	1.80933297	9.47915745	8.92908859
H	1.80013204	9.18098640	1.24756038
O	3.03641033	2.90829468	10.27879143
H	2.34104967	3.38709545	-0.10163487
H	3.20635056	3.46234345	11.14422607
O	5.87725163	9.09011078	8.58197403
H	5.20326090	8.53264046	9.02533340
H	5.34896278	9.43240261	7.83851385
O	-0.52082878	6.95917940	1.30561328
H	-1.17621708	7.28286934	1.97602606
H	0.51185185	8.08708668	0.92700487
O	6.76794243	5.87001896	5.55632639
H	7.56727982	5.70869970	6.11624765
H	6.02490759	6.15885830	6.18038321
O	7.79268074	9.99032021	6.84440088
H	8.64071274	9.45513439	6.59106970
H	7.18698406	9.42771721	7.39762783
O	4.84258938	5.96803856	7.30592728
H	5.01043987	6.66120577	8.00310230
H	4.21694613	7.23871374	5.65673208
96
whada
O	2.42219162	2.73706794	0.86465734
H	2.34900522	2.18142962	1.70324981
H	1.46065152	3.08766055	0.82440680
O	-0.80501717	1.22759449	1.66707480
H	-0.56995314	2.19155598	1.88903248
H	-1.77238822	1.26426089	1.30909646
O	1.07902908	6.48019838	6.24528265
H	0.21697697	6.93031502	6.09358549
H	-1.73530018	8.36516190	7.42958879
O	6.12879753	0.88812500	4.59018373
H	5.68811226	0.26040348	5.20140362
H	7.08838129	0.67062080	4.65703487
O	3.41090441	6.92993307	2.08822918
H	2.58119226	7.08020306	1.70765352
H	4.08751583	5.31831837	1.60552883
O	6.77099752	6.72563267	0.14688528
H	7.07945538	7.35966969	0.82913136
H	5.97355604	7.19311380	9.60957527
O	0.53274703	7.40238905	1.24710071
H	-0.34650239	7.29937553	1.79509866
H	0.39484963	8.23479652	0.75987017
O	6.72829628	11.10372448	0.29867238
H	6.16297674	10.44578934	0.71307302
H	7.03124857	10.79548264	9.22904491
O	1.47516024	9.94443226	5.57258940
H	1.95143819	10.68610764	5.89081573
H	2.22640920	9.31505680	5.39051533
O	-1.52600765	7.21079397	2.94520831
H	-2.02669597	6.43743515	3.24508643
H	-1.36147964	7.93302155	3.60629511
O	-0.87017184	9.60951138	4.18520069
H	-0.07518756	0.00234281	4.71444607
H	-0.79718226	10.21393967	3.42357898
O	4.21211481	4.35295963	1.50269771
H	5.25300074	4.13285255	0.39565301
H	3.36395550	3.95841575	1.30759788
O	5.91656637	3.71805739	9.53497410
H	5.16405153	3.65102005	8.44642258
H	6.08994722	2.76760864	9.81585217
O	0.88929272	3.95773125	5.26193237
H	1.44361937	3.20525980	5.48443222
H	0.76115996	3.95660138	4.26095295
O	3.23674321	7.73240423	4.92305946
H	0.99700016	5.61008406	5.71642160
H	3.36201096	6.97591305	3.06905866
O	-1.28263152	2.90510726	6.57002974
H	7.71377039	3.28494048	6.41580915
H	-0.54214334	3.28232598	6.00841951
O	-1.13907528	4.24904394	8.97431850
H	-1.21113133	3.93834543	8.08754253
H	7.79537630	4.34101772	9.27018738
O	5.08802938	9.58335781	2.02605939
H	5.56573439	9.79012585	2.92397165
H	4.75231791	8.69615364	2.14420438
O	2.47207427	10.42703056	2.42312741
H	3.48785830	10.32987499	2.54162812
H	1.97958803	10.12959194	3.16154933
O	2.93436527	10.48829746	8.49259472
H	2.99291444	11.11306000	7.73840475
H	2.98025036	11.09820080	9.29248238
O	2.66787672	5.54983997	8.14530754
H	2.10133171	5.26254129	8.95917320
H	1.98799109	5.86604595	7.49272490
O	3.05843425	2.33364534	6.19408607
H	3.56621718	11.86383724	5.41278219
H	3.64905834	2.76821566	6.85242605
O	-1.88408649	10.16826439	8.01669788
H	-1.63495362	10.89092922	7.35591364
H	-1.02357280	9.98480511	8.51830292
O	7.12162590	4.94976616	3.34171295
H	6.87389803	4.56295538	4.20902109
H	6.44789171	4.52592278	2.75745797
O	-1.57161546	7.48992395	6.95560932
H	-1.81658363	6.83677483	7.57192564
H	6.37235165	7.61073637	6.58981037
O	0.93815356	5.04490614	0.43165475
H	0.20936827	4.79348803	9.59895706
H	0.79814845	6.04209328	0.58655977
O	0.28208897	-0.22624138	9.67736816
H	0.19974561	0.39259985	0.58643407
H	1.17954481	-0.00097192	9.25294399
O	4.29232073	7.70449162	9.09658909
H	3.46168590	7.20756674	8.80062008
H	3.97301316	8.60537243	9.09930134
O	-0.13113862	3.92802286	2.60384250
H	-0.97544599	4.33060694	2.81796885
H	0.21472514	4.43993282	1.86718535
O	6.17032623	3.61037183	5.46447802
H	6.08982420	2.71846032	5.11204529
H	5.45066977	3.66987777	6.20543766
O	5.39035654	7.82430935	6.57948589
H	3.98465323	7.69390678	5.56563234
H	5.08864260	7.96524477	7.50765848
O	4.55856562	3.69833326	7.55820084
H	3.80601883	4.40897751	7.59058857
H	2.56928968	7.15927029	5.36230755
96
whada
O	5.12863302	1.34648466	4.45816708
H	4.78202868	0.43215278	4.63892746
H	4.46870518	1.69626594	3.77315879
O	1.52442276	-1.11849940	3.63729310
H	1.50272179	-0.12554775	3.67152143
H	0.74288261	-1.41880250	3.07103515
O	1.28336334	6.17584991	6.04713154
H	0.93087900	5.87552834	5.14986277
H	0.93632317	4.70641136	7.16770124
O	8.04021263	-1.44139874	6.25591469
H	7.15736961	-1.64100063	6.72443628
H	8.79657269	-1.65220678	6.81832933
O	5.15775776	5.99792671	4.19153118
H	4.47009611	6.70665312	4.24331284
H	4.75287867	5.45465183	3.45593929
O	7.49605989	4.28998709	1.44595647
H	7.33373737	3.34829593	1.77420497
H	6.56419325	5.21691847	10.32941628
O	3.47928786	4.96908855	2.00953388
H	2.59075117	4.81248474	2.35139489
H	3.55609727	6.77303171	1.76640630
O	9.32963276	8.15997314	1.78590441
H	8.68033886	7.85265064	2.41305661
H	9.48260689	7.30519104	11.01367474
O	5.43023157	8.01885033	7.23979902
H	5.22679853	8.27264214	8.15771198
H	5.02300739	7.11162758	7.11935949
O	0.21515003	5.38602066	3.80031753
H	-0.08589750	4.47723198	4.02666664
H	-0.60500097	5.84655046	3.70742512
O	0.55376208	8.46019554	7.34281921
H	0.84509259	-0.45054513	7.32011747
H	0.86290467	7.96197176	6.53492260
O	7.16897917	2.02790594	2.94424224
H	7.30240345	1.33453035	2.26023126
H	6.40246296	1.74817622	3.50247645
O	7.50349855	0.16563179	10.82750702
H	7.79708004	0.63945055	9.98495293
H	8.28463840	-0.36969680	11.11374760
O	1.63959539	1.36348629	7.25155306
H	1.99771869	1.24851143	6.37947369
H	1.30053520	2.28248739	7.42271376
O	3.91280627	5.76196384	6.91518974
H	2.26426268	5.97890282	6.11939573
H	4.29531765	5.03102779	6.34454298
O	-0.75788778	1.37123144	9.10040379
H	8.61051178	1.46909547	8.23275280
H	-0.07235122	0.71553862	8.84054947
O	0.01753661	3.77903557	10.41407490
H	-0.21789826	2.93165755	9.95696068
H	8.38862896	4.18013716	10.88105202
O	7.67162466	6.84728718	3.70090961
H	7.77690268	7.31621647	4.57313442
H	6.79895258	6.30242395	3.83072042
O	4.17924738	8.81570435	4.86709690
H	3.19102335	8.59269524	4.77831364
H	4.52616024	8.54996872	5.70807409
O	5.10076571	8.97437954	9.77048969
H	4.27585745	10.57159805	9.40488338
H	5.95046759	9.27190781	10.24389458
O	3.86566997	4.53120565	9.23015213
H	3.80859494	3.58778787	9.19580936
H	3.40818071	4.83492804	10.80997944
O	3.98234129	1.52873659	8.91715431
H	3.19949365	11.09308910	8.41681194
H	5.41633701	2.26550269	5.92107248
O	0.67534280	6.43483973	9.73373604
H	0.53138918	6.87337112	8.85888672
H	1.53581333	6.73560190	10.12107944
O	9.13305569	2.90023994	4.49428272
H	8.96669292	2.53400135	5.41688156
H	8.48425388	2.48146224	3.92142749
O	0.64090276	3.88271737	7.64730072
H	0.50184840	4.39950180	9.78780460
H	9.51992226	3.97291350	7.50834274
O	3.79699087	2.17185235	2.31739879
H	3.96370268	1.65893173	11.38045311
H	4.07041073	3.11268187	2.06464577
O	3.17127228	-2.19466853	11.45319366
H	2.60812140	-1.88676000	2.39036393
H	4.58996773	-1.35152709	10.42387009
O	6.06857443	5.56424141	9.63882351
H	4.88292933	4.78693295	9.24686909
H	5.81137037	6.49727249	9.80833435
O	1.62372053	1.53350151	3.99832559
H	0.82703209	2.14441180	3.93659997
H	2.20704317	1.72745097	3.23885727
O	8.03484917	1.11714923	6.61975384
H	7.89839745	0.15602465	6.46166277
H	7.11472368	1.46465027	6.59874344
O	7.62810850	4.79712391	7.33408833
H	6.97509956	4.04963207	7.03594494
H	7.09300327	5.11572599	8.07532024
O	5.25610781	2.91688728	6.66777229
H	4.90754557	2.42843866	7.46930408
H	3.69261980	5.24547195	7.75966644
