96
whada
O	5.12863302	1.34648466	4.45816708
H	4.78202868	0.43215278	4.63892746
H	4.46870518	1.69626594	3.77315879
O	1.52442276	-1.11849940	3.63729310
H	1.50272179	-0.12554775	3.67152143
H	0.74288261	-1.41880250	3.07103515
O	1.28336334	6.17584991	6.04713154
H	0.93087900	5.87552834	5.14986277
H	0.93632317	4.70641136	7.16770124
O	8.04021263	-1.44139874	6.25591469
H	7.15736961	-1.64100063	6.72443628
H	8.79657269	-1.65220678	6.81832933
O	5.15775776	5.99792671	4.19153118
H	4.47009611	6.70665312	4.24331284
H	4.75287867	5.45465183	3.45593929
O	7.49605989	4.28998709	1.44595647
H	7.33373737	3.34829593	1.77420497
H	6.56419325	5.21691847	10.32941628
O	3.47928786	4.96908855	2.00953388
H	2.59075117	4.81248474	2.35139489
H	3.55609727	6.77303171	1.76640630
O	9.32963276	8.15997314	1.78590441
H	8.68033886	7.85265064	2.41305661
H	9.48260689	7.30519104	11.01367474
O	5.43023157	8.01885033	7.23979902
H	5.22679853	8.27264214	8.15771198
H	5.02300739	7.11162758	7.11935949
O	0.21515003	5.38602066	3.80031753
H	-0.08589750	4.47723198	4.02666664
H	-0.60500097	5.84655046	3.70742512
O	0.55376208	8.46019554	7.34281921
H	0.84509259	-0.45054513	7.32011747
H	0.86290467	7.96197176	6.53492260
O	7.16897917	2.02790594	2.94424224
H	7.30240345	1.33453035	2.26023126
H	6.40246296	1.74817622	3.50247645
O	7.50349855	0.16563179	10.82750702
H	7.79708004	0.63945055	9.98495293
H	8.28463840	-0.36969680	11.11374760
O	1.63959539	1.36348629	7.25155306
H	1.99771869	1.24851143	6.37947369
H	1.30053520	2.28248739	7.42271376
O	3.91280627	5.76196384	6.91518974
H	2.26426268	5.97890282	6.11939573
H	4.29531765	5.03102779	6.34454298
O	-0.75788778	1.37123144	9.10040379
H	8.61051178	1.46909547	8.23275280
H	-0.07235122	0.71553862	8.84054947
O	0.01753661	3.77903557	10.41407490
H	-0.21789826	2.93165755	9.95696068
H	8.38862896	4.18013716	10.88105202
O	7.67162466	6.84728718	3.70090961
H	7.77690268	7.31621647	4.57313442
H	6.79895258	6.30242395	3.83072042
O	4.17924738	8.81570435	4.86709690
H	3.19102335	8.59269524	4.77831364
H	4.52616024	8.54996872	5.70807409
O	5.10076571	8.97437954	9.77048969
H	4.27585745	10.57159805	9.40488338
H	5.95046759	9.27190781	10.24389458
O	3.86566997	4.53120565	9.23015213
H	3.80859494	3.58778787	9.19580936
H	3.40818071	4.83492804	10.80997944
O	3.98234129	1.52873659	8.91715431
H	3.19949365	11.09308910	8.41681194
H	5.41633701	2.26550269	5.92107248
O	0.67534280	6.43483973	9.73373604
H	0.53138918	6.87337112	8.85888672
H	1.53581333	6.73560190	10.12107944
O	9.13305569	2.90023994	4.49428272
H	8.96669292	2.53400135	5.41688156
H	8.48425388	2.48146224	3.92142749
O	0.64090276	3.88271737	7.64730072
H	0.50184840	4.39950180	9.78780460
H	9.51992226	3.97291350	7.50834274
O	3.79699087	2.17185235	2.31739879
H	3.96370268	1.65893173	11.38045311
H	4.07041073	3.11268187	2.06464577
O	3.17127228	-2.19466853	11.45319366
H	2.60812140	-1.88676000	2.39036393
H	4.58996773	-1.35152709	10.42387009
O	6.06857443	5.56424141	9.63882351
H	4.88292933	4.78693295	9.24686909
H	5.81137037	6.49727249	9.80833435
O	1.62372053	1.53350151	3.99832559
H	0.82703209	2.14441180	3.93659997
H	2.20704317	1.72745097	3.23885727
O	8.03484917	1.11714923	6.61975384
H	7.89839745	0.15602465	6.46166277
H	7.11472368	1.46465027	6.59874344
O	7.62810850	4.79712391	7.33408833
H	6.97509956	4.04963207	7.03594494
H	7.09300327	5.11572599	8.07532024
O	5.25610781	2.91688728	6.66777229
H	4.90754557	2.42843866	7.46930408
H	3.69261980	5.24547195	7.75966644
96
whada
O	5.87741995	2.99055910	3.27816153
H	5.68071461	2.01915884	3.48721242
H	4.95026875	3.48395658	3.54837394
O	2.48074079	1.05135417	2.52134609
H	2.57593036	2.03663158	2.53028464
H	1.62504768	0.90027732	2.05745053
O	3.34402037	4.16687059	4.14388990
H	2.64131713	4.08136320	3.40983129
H	0.98018932	7.15346050	4.52807760
O	8.46446991	0.72740251	5.07635307
H	8.04672241	0.14114006	5.71667480
H	9.39172840	0.49994349	5.35756350
O	6.35208750	7.58845377	3.20432711
H	5.89982224	8.45641232	3.10198283
H	6.09433699	7.06319666	2.33991408
O	9.48168373	6.86669302	-0.27425656
H	9.92124939	7.18562078	0.51798415
H	8.80866814	7.48626757	9.23948383
O	3.20367670	6.86681128	0.71341997
H	2.54695702	6.90650702	1.42734778
H	3.46677971	7.75682974	0.50835371
O	10.09413052	10.53864002	0.92307878
H	9.41985798	9.90579700	1.25733685
H	10.24375534	10.31854439	9.83512592
O	4.67166042	9.02325726	6.32592106
H	4.36308050	9.07915783	7.26336432
H	4.41962862	8.09175682	6.08486938
O	0.90690655	6.82207251	2.58225632
H	0.25717652	6.10796213	2.82975841
H	0.31213942	7.68847942	2.68112445
O	1.08024311	10.30285549	5.88086796
H	1.73693991	1.23126829	5.84066010
H	1.48398030	9.39566994	5.70279789
O	7.23887873	4.07741737	1.24595022
H	7.60396814	3.47884178	0.47859558
H	6.83742237	3.41000891	1.81432283
O	8.46436024	2.43855429	9.48378468
H	9.05618286	2.71466637	8.71579552
H	9.03073502	1.89346588	10.02763557
O	2.57360291	2.59323573	6.06002283
H	3.37322879	2.48561883	6.59226656
H	2.87345600	3.14788270	5.30159855
O	4.78325129	6.39793491	5.02408886
H	3.46243215	5.07099581	4.39840841
H	5.25256252	6.75036621	4.28182173
O	0.32400158	3.54196477	7.34110260
H	9.13201523	3.62116385	6.10897160
H	1.12840533	3.11944604	7.00281334
O	1.30750823	5.96018267	7.48254919
H	0.65627873	4.50921297	7.26405859
H	10.61453533	6.36370564	8.22318077
O	8.81152058	8.95784760	2.68228126
H	8.80068302	9.60180855	3.43224049
H	8.06935787	8.33333015	2.98830080
O	5.01884890	10.08759975	3.83441925
H	4.14953899	10.33085346	3.40011477
H	4.74492788	9.71818352	4.74945116
O	5.88219500	10.81381416	9.10005474
H	5.65342760	11.28262234	8.20275784
H	6.79434252	11.26754951	9.31448936
O	5.87838221	6.21736670	10.66670704
H	6.35801125	5.37886810	10.70846081
H	4.91458130	6.15532875	10.45705795
O	4.99303341	2.36692023	6.84127045
H	5.40710068	11.80415726	6.06070042
H	5.29637766	3.33824420	6.85685730
O	1.13742495	10.02746487	8.51281548
H	1.03913128	9.94069195	7.55416918
H	2.09268403	10.12098408	8.61939716
O	9.02653027	4.67350054	3.17900038
H	8.71253681	4.20433950	3.89572668
H	8.42179489	4.51949978	2.38265896
O	0.91952538	7.59367514	5.43581724
H	1.37804472	6.65878296	6.79953384
H	9.75903606	7.73704100	5.60779858
O	3.19465017	4.23317957	-0.35528013
H	2.67205191	4.34366894	8.63432884
H	3.28193355	5.22432756	-0.10106945
O	3.72040987	-0.33009729	10.11274242
H	3.41557240	0.11597503	1.11253989
H	4.51264238	0.24422775	9.91864109
O	6.92050695	8.01444817	8.73338604
H	6.52961588	7.48955345	9.48254395
H	6.51233864	8.90070248	8.80213165
O	1.53772330	3.72339320	2.03259277
H	0.56077671	3.88011813	2.13080764
H	1.81969094	4.06084061	1.14471853
O	8.26706600	3.56724262	5.64105415
H	8.12195206	2.58569098	5.35632277
H	7.05845690	4.27535105	6.26073360
O	7.95460415	7.72694159	6.10443640
H	7.03397751	7.61466980	5.72060680
H	7.68618679	7.67851257	7.05533171
O	6.13321018	4.75076914	6.67245865
H	6.23389053	5.16156721	7.52037048
H	5.37481070	5.77858496	5.50314760
96
whada
O	5.91020060	1.64514136	3.00635219
H	6.63318110	1.43346560	2.38915372
H	5.44333935	0.77013171	3.02237463
O	2.71311188	1.10606194	1.53057921
H	2.43566704	1.90116119	2.06525660
H	3.32967019	1.54334533	0.89773422
O	2.62385488	5.94773197	4.97454691
H	3.39140248	5.36521959	4.99833536
H	2.12531376	5.67988396	5.84731007
O	9.29353714	0.78036553	4.81317186
H	8.57181358	0.41769725	5.38380861
H	10.19306660	0.38200536	5.08634329
O	5.89368916	6.75647974	1.72260344
H	5.73105431	6.37321949	0.83996308
H	6.47660589	6.11752462	2.09815168
O	8.87476540	6.63632154	-0.51096809
H	8.59010696	7.33949757	0.15951411
H	8.08076000	6.53508091	8.73257732
O	2.59468770	7.27894497	0.18851596
H	1.91430771	7.69054794	0.79075509
H	3.03430915	8.05857086	-0.26317251
O	8.21374512	9.23883724	0.58950484
H	8.34518242	9.20003605	1.59529305
H	9.05188847	9.48987770	10.02992058
O	4.00263977	8.28697777	5.32800055
H	4.27230740	8.43828201	4.37523508
H	3.78891230	7.30698347	5.33313799
O	1.26339650	7.86975431	2.47283053
H	1.87950408	7.40300941	3.09715486
H	0.37812653	7.79256678	2.82616735
O	1.51077533	9.31399155	5.94022703
H	2.38356590	-0.95804602	5.72615957
H	1.07806778	8.46333504	6.07341957
O	7.82071590	4.65641451	2.11898375
H	8.15912819	4.30996943	1.32648909
H	7.65942383	3.96589971	2.75664377
O	7.42024708	2.17279315	10.26379108
H	8.33475590	2.44445133	10.11865616
H	7.32713127	1.28436971	9.76663685
O	3.66272378	1.82649708	5.25983906
H	3.71269655	2.60548854	4.64704132
H	2.77203035	1.67634773	5.55964088
O	4.45288801	4.19754934	3.83723974
H	3.68089771	4.23381758	3.23297524
H	4.99570131	3.46749401	3.55897141
O	-0.67337990	2.91480732	7.27712297
H	9.55122852	3.36089540	6.48996067
H	-0.16302463	2.12633801	7.37828112
O	-0.16341136	4.07232714	9.69061565
H	-0.31745693	3.60572648	8.84485912
H	9.41964722	4.98387527	9.49018955
O	8.54681015	8.69708633	3.10258412
H	8.85715771	9.39450550	3.71409607
H	8.04771233	8.01531029	3.64276695
O	4.65342283	9.07143211	2.70244479
H	5.04517174	8.19793034	2.44359803
H	3.70059896	9.24951458	2.39405847
O	6.41324663	9.21995354	8.34372139
H	6.87931919	9.65239334	7.56429052
H	7.04910946	9.29203701	9.11577702
O	5.41374683	4.34564447	9.43130970
H	6.08785868	3.69465137	9.79134750
H	4.49963093	4.12338591	9.78710461
O	6.79331589	0.24596015	5.87928152
H	6.11883640	9.86362839	5.23015404
H	6.53645611	1.16786158	6.24588060
O	0.51336038	10.04214191	8.65564156
H	1.12167799	9.75947094	7.92570210
H	1.02388608	10.62779427	9.28716373
O	9.61653519	5.88054657	3.90784359
H	9.71554184	5.08927441	4.42801142
H	8.85452938	5.51905346	3.26393771
O	0.73497701	6.66579628	6.87411070
H	0.58885592	6.59668827	7.86297798
H	9.65766811	6.83116627	6.51387691
O	2.67918110	4.65488672	0.10572614
H	1.88610554	4.26184750	9.59047413
H	2.62086773	5.68884516	0.11892404
O	3.87310934	-0.34348825	9.23559570
H	4.32072926	-0.29158890	0.22390750
H	4.54918432	-0.11559999	8.60061455
O	6.51048803	6.46897507	7.91284943
H	5.95028067	5.77414751	8.32748795
H	6.10552073	7.38603401	7.83166742
O	2.15568590	3.80297327	2.48130774
H	1.52209878	4.40034056	2.87626266
H	2.50502491	4.15761328	1.47761869
O	8.23511600	3.22347045	4.53165340
H	8.77635479	2.38519287	4.57650232
H	7.43319321	3.11841607	5.06356335
O	8.02004623	7.22454453	5.61873722
H	8.18722153	6.46309280	5.00639057
H	7.32681322	6.90633345	6.20325851
O	6.36867428	2.95999408	6.74450397
H	7.20783663	3.11601996	7.17905092
H	5.73817348	3.35709357	7.38945246
96
whada
O	6.41309690	1.93575346	3.51946449
H	5.77650642	1.29926658	3.19228649
H	5.88407326	2.61863494	3.92743039
O	1.63849270	0.84205413	2.28629375
H	2.08457923	1.75448883	2.20917749
H	1.25369430	0.75539690	1.38716567
O	1.94740546	5.08833456	5.22955561
H	2.85665321	5.13525438	4.89705515
H	1.96898353	5.27521896	6.17311144
O	9.53583241	1.16372228	4.65048075
H	8.73543262	0.78390718	5.04232883
H	10.27548409	0.54177648	4.62322760
O	6.05009079	5.74943066	1.52552795
H	5.58271360	5.52563667	0.64197040
H	6.83834267	5.08835936	1.66118538
O	9.09425831	6.61477327	0.88265049
H	9.52808189	6.30608130	1.71463978
H	8.15121746	6.65959597	11.01928520
O	1.81671679	7.63959789	0.59329277
H	1.73643839	7.90561676	1.55970526
H	2.71367073	7.96938705	0.25046045
O	7.58654690	8.88906384	0.91491145
H	7.48866749	8.36790848	1.73802161
H	8.32449627	8.50432301	10.26481724
O	3.72494316	7.97576904	4.99427462
H	3.93581438	8.37979794	4.13344669
H	3.26059079	7.14396477	4.88134146
O	1.35030293	8.12790489	3.07771373
H	0.37076968	8.28230667	3.19841456
H	1.87061167	8.80777740	3.55628109
O	1.36775935	9.13202381	6.17778349
H	2.11647630	-1.33355653	6.05102587
H	0.57905525	8.64593601	6.41079235
O	8.03104210	3.80785322	1.90040112
H	8.18585873	3.43270731	1.02326453
H	7.33206463	3.27284217	2.34050560
O	7.84402323	1.73683465	9.82120895
H	8.65054417	1.66658568	9.29978085
H	7.88919783	1.31323135	10.68375874
O	3.95523262	2.41545129	5.18818521
H	3.40691352	2.63490152	4.40382290
H	3.71723700	1.47515070	5.37578630
O	4.63303995	4.80655479	3.78958058
H	3.87040591	4.49049377	3.23885131
H	5.15402317	5.28826523	3.11327600
O	-0.36443767	2.09409308	7.56756449
H	9.18989182	2.71851420	6.89254618
H	0.32204437	1.63083637	6.96767569
O	-0.62946963	4.24345922	9.57189369
H	-0.54639524	4.00057411	8.61617756
H	8.92356396	5.20635843	9.63784885
O	8.60650253	8.02893639	3.72538137
H	8.28885269	8.91378117	3.93651271
H	8.77498531	7.55249119	4.62971163
O	3.98168111	9.19129467	2.46148491
H	3.52672648	8.46102238	2.02727652
H	3.31339073	9.88187695	2.28847384
O	6.54345417	9.16932678	8.28553009
H	7.20383930	9.68491268	7.75239658
H	6.98166895	9.12735844	9.16755962
O	5.67628956	3.40526533	9.21389675
H	6.45047235	2.74840093	9.34950161
H	4.82502413	2.90314698	9.17482853
O	7.40267849	0.43119666	6.07845116
H	6.84318590	9.67923355	5.57103205
H	6.91428041	1.25027156	6.19839764
O	0.22641455	9.31673813	9.07865238
H	0.93877602	9.63487434	8.47216606
H	0.53347647	8.63923073	9.70904350
O	10.08224297	5.58488607	3.19192052
H	10.83957100	5.66326141	3.84261012
H	9.51035881	4.83027506	3.33797812
O	1.44650435	6.29134035	7.83214188
H	1.37075746	6.94876194	8.53604126
H	10.50788593	6.53167629	7.30581570
O	1.94910610	4.75227737	0.45147794
H	1.00043929	4.46214437	10.02791882
H	1.95848036	5.71505880	0.48168808
O	4.29608297	-1.02182758	9.69782543
H	5.01620626	-0.93829483	0.50562829
H	4.70327854	-0.76351607	8.83725739
O	6.55410814	6.77673817	7.00907373
H	6.02003574	6.75976944	6.18946362
H	6.29049063	7.48589849	7.66912746
O	2.73027349	3.52558112	2.50211072
H	1.93965113	3.69721580	3.03969002
H	2.45342398	4.05299950	1.55317497
O	8.53093243	3.56791329	5.38639355
H	8.84041977	2.86349988	4.82212067
H	7.58083773	3.48193598	5.55829620
O	8.98294735	6.69203043	5.88258123
H	9.26924515	5.80189371	5.53842115
H	8.12879658	6.55651855	6.39568377
O	6.23837757	2.99438930	6.40730476
H	6.45126677	3.34430003	7.29838514
H	5.27400064	3.12138033	6.25383043
96
whada
O	4.08760405	1.17106605	2.36872816
H	3.73241210	0.67620057	3.16900158
H	3.46572995	0.87745702	1.70047128
O	0.52440643	0.84182191	1.72506237
H	0.66471744	1.74761391	1.33718503
H	-0.24535388	0.50631642	1.17489719
O	3.24482322	3.81515956	2.40988922
H	2.34666252	3.57479501	2.02158213
H	1.41153085	6.40670013	5.19155216
O	6.35953522	1.14107347	4.47191143
H	6.28895664	0.64974511	3.62563539
H	7.16530895	0.82934064	4.93728971
O	5.49539804	7.03065872	2.27454352
H	3.64450741	7.23845768	2.01248741
H	5.82173109	6.40851831	1.60779941
O	8.05465412	8.33612442	-1.83686602
H	8.46234226	8.82609844	-2.57583785
H	7.11701584	8.33485603	7.83879709
O	2.72629309	7.60747242	2.00327921
H	2.65453815	7.95350409	2.86369228
H	2.75240707	9.03222466	0.76843947
O	8.31655121	10.03960991	0.12047557
H	7.01503611	9.50664616	1.36251700
H	8.13039303	9.40821362	9.33339500
O	6.23729563	6.85122204	5.10328150
H	5.62561798	7.42884922	5.58228827
H	5.90163660	6.72491360	4.14493561
O	-1.11757183	7.11811972	1.72570157
H	-1.52125275	5.68270540	1.99565411
H	-0.18209127	7.27263689	1.47591722
O	0.54983062	10.99705791	4.45202875
H	0.72578084	2.07677960	4.82905149
H	0.38206753	11.02529335	3.47996378
O	5.70738173	4.39383698	0.73553222
H	6.48859406	3.23761249	-0.40144682
H	4.93997955	4.23105955	1.29802096
O	6.93620205	2.39294171	9.09895611
H	7.43378973	2.75639224	8.32762814
H	7.85851097	1.06185114	9.75437546
O	1.58553898	3.14920712	5.69322157
H	2.44203544	2.69904780	6.06630230
H	2.00009346	3.93208599	5.28596306
O	2.85012174	5.24036312	4.70748281
H	3.68976045	2.93722630	2.61912179
H	2.98408079	4.87529469	3.75101638
O	-0.99002898	3.43285728	7.27992868
H	8.55141830	3.65620685	6.34075451
H	0.00216769	3.24900818	7.17866087
O	-0.22752370	6.10199356	8.09078979
H	-0.56118214	5.16906786	7.93533373
H	8.88535595	6.76435471	8.03626156
O	6.27821589	9.50555897	2.02112484
H	5.65975142	10.15462017	1.72381473
H	5.85008955	7.99658489	2.27077341
O	2.81208539	9.47998905	4.31863928
H	1.96621001	10.02151108	4.48453951
H	3.14744020	9.36627197	5.22902060
O	4.81831789	10.71735859	8.48434353
H	4.26449919	11.38583946	7.00076723
H	5.59123421	11.22820091	8.86407757
O	4.45624352	5.67622232	8.63906574
H	5.15450191	5.32372284	9.23485661
H	3.58554101	5.53467131	9.11595249
O	4.28743410	1.86753094	6.08830595
H	5.01030827	11.21976089	5.63876963
H	4.79519701	3.43847919	6.29543209
O	-1.31324852	10.25281811	6.07452297
H	-0.52850312	10.30529785	5.49049759
H	-1.13123977	11.00679970	6.72598314
O	8.09730244	4.58811903	2.04557395
H	8.05096245	4.44840860	2.99128532
H	6.60354233	4.54918098	1.36671174
O	0.78112638	7.00858259	5.59116411
H	0.47374499	6.64728355	6.47720909
H	9.26142120	7.29890680	4.54459143
O	1.94367194	5.94284916	-0.12931375
H	1.22383523	6.10602713	9.08822632
H	1.89839900	6.60108328	0.64848584
O	2.74668837	-0.06247616	9.98534489
H	1.89097321	0.27643555	0.32920760
H	4.21182871	0.49180236	9.17743111
O	5.39099121	8.13530254	7.25884676
H	4.87406588	7.39115047	7.73747063
H	5.10456896	8.95466900	7.71156263
O	0.76455808	3.47986507	1.10142171
H	-0.05544633	3.75359225	1.63346040
H	1.09060371	4.27447796	0.61932731
O	7.48273754	3.88368964	4.75823212
H	7.12556601	3.02329016	4.49532604
H	6.63221979	4.30264664	5.28976488
O	8.57617474	7.89332962	4.12216043
H	8.75549030	7.57595110	2.67675018
H	7.76793814	7.64521265	4.62928963
O	5.12140942	4.39181995	6.25897360
H	4.85224295	5.01628637	6.98516846
H	3.77160621	5.13508844	5.07283401
96
whada
O	4.11824465	2.58884740	0.74838448
H	3.81684995	2.13735485	1.59194338
H	3.40999722	3.13811684	0.36980474
O	0.56148958	0.55200315	2.07294726
H	0.84054041	1.48377705	1.96578324
H	-0.27335429	0.56174821	1.50288284
O	2.44439960	5.47226191	5.73232412
H	1.66094768	5.80460548	5.18568039
H	-0.69838375	7.51963377	7.55757380
O	7.76429701	0.42551589	5.00015497
H	7.34723997	-0.34348872	5.40389156
H	8.75267601	0.08502523	5.01326561
O	4.41515350	6.80768299	1.73259699
H	3.55649900	6.56790161	1.34482431
H	5.78439999	5.61502790	1.84313476
O	7.55136871	7.15380096	0.02085848
H	7.88439703	6.74773407	-0.82561058
H	6.02481127	7.71121216	9.36300278
O	1.43849552	6.56432295	1.35539043
H	1.19705772	6.67375278	2.35960984
H	1.63328862	7.48146677	0.98138297
O	8.23543358	10.21945572	0.68977731
H	7.54216909	9.64506245	1.14399314
H	8.49274635	9.86321735	9.67138290
O	2.77723098	9.47127914	5.28069210
H	3.32171178	9.90174103	5.94214725
H	3.33388638	8.71339417	5.04318953
O	0.54081208	6.39419222	3.87620568
H	-0.33722520	5.90334034	3.91054869
H	0.41425982	7.39734840	4.04695463
O	0.31911233	8.96381950	4.48339319
H	1.22858036	-0.65025717	4.86603880
H	0.33641228	9.60178661	3.63576603
O	6.67356920	5.26491594	1.85622787
H	7.31158972	6.33861971	0.57316238
H	6.80470324	4.54547024	1.21512067
O	7.22094488	3.50199914	9.49387550
H	6.68655729	3.66351080	8.69692802
H	7.06796169	2.60495615	9.77744579
O	2.22902322	2.57844734	5.47489595
H	3.12065697	2.13063407	5.77646685
H	2.16235232	2.74491739	4.49285984
O	4.35770226	7.20448017	4.68251896
H	2.33552432	4.51277065	5.65814924
H	4.05677271	6.88264561	2.61977983
O	0.07302535	1.96492922	6.70352983
H	9.16623974	2.24367714	6.13253164
H	0.92878962	2.19848752	6.17053366
O	-0.24591313	4.17445707	8.16952133
H	-0.11214226	3.35528183	7.66957378
H	9.01039314	3.85615277	8.90635014
O	6.49042273	9.28924084	2.51957202
H	6.81181431	9.62357235	3.38173580
H	6.59198236	8.28042412	2.57408619
O	3.73164415	10.51989079	2.71185803
H	4.56803942	10.04884911	2.59271908
H	3.38053751	10.49105930	3.62782168
O	4.28070164	10.44051552	9.03677845
H	4.29622173	10.80116272	7.79211092
H	4.35688162	11.20131111	9.73137856
O	3.56247377	6.05743122	8.07136726
H	2.95162535	5.53144741	8.67923641
H	3.05624390	6.10408258	7.22316790
O	4.30097198	1.38990808	6.76218081
H	5.23106670	11.14983559	6.58152580
H	4.61897373	3.09474683	7.19087124
O	-0.56670153	9.33338642	8.04092789
H	-0.31188014	9.89284992	7.32040739
H	0.22265914	9.23417854	8.53644276
O	8.29866600	4.95538950	3.86749530
H	7.85496378	4.33015299	4.47139263
H	7.54198170	5.13015652	3.23603511
O	-1.14163959	6.63986778	7.39621496
H	-0.60193914	5.80373716	7.60368204
H	7.43808794	7.28465652	6.63270092
O	2.14762640	4.48672962	-0.07446841
H	1.49190223	4.13969040	9.20224953
H	1.73862088	5.20898628	0.49245593
O	1.72499835	-0.91605306	10.01589870
H	1.45408559	-0.29729831	0.86248094
H	2.49063754	-0.62685186	9.46234608
O	5.18566418	8.10064602	9.03920460
H	4.68715191	7.30530643	8.69804001
H	4.60043430	9.44709682	9.11421680
O	1.10042942	3.33176541	3.02213812
H	0.24450527	3.59610486	3.30042219
H	1.54613781	4.20214605	3.00404215
O	7.17999506	3.08045101	5.49296141
H	7.30114841	2.11813521	5.36742210
H	6.45948124	3.28688836	6.09821367
O	6.85688019	8.01529121	6.19696426
H	5.20739317	7.15262747	5.14666510
H	6.26367188	8.37293339	6.91510105
O	5.28460932	3.85599470	7.31380033
H	4.84799290	4.76736021	7.39408827
H	3.70720553	6.56927252	5.04744864
96
whada
O	5.69052553	2.32197571	4.10252810
H	6.06391335	1.50512850	3.74671555
H	4.83923483	2.29846931	3.61695147
O	2.12746954	1.02834010	1.41367924
H	1.84068298	1.76463342	1.94486058
H	2.89280343	1.32947612	0.84322941
O	1.39388144	6.91844034	4.81963015
H	0.79198152	7.17759466	5.51372671
H	0.86088991	6.18102312	4.44603729
O	9.00865459	0.52757347	4.78660774
H	8.65733051	-0.37519291	4.91546965
H	9.83219433	0.38784859	5.25238180
O	4.80578279	7.20529842	2.72687554
H	3.88356352	7.31754684	2.43824673
H	4.97306299	6.26040173	2.53785276
O	9.82895184	6.48231888	0.83616775
H	10.09568214	7.33028173	0.96961802
H	9.52093983	6.43233728	9.79038429
O	2.96912575	7.54038095	0.77383047
H	2.30718136	8.15169811	0.49051309
H	3.73319364	7.89498520	0.35154092
O	8.18829632	10.28419018	0.45870689
H	7.93561411	9.40828133	0.75578302
H	9.04703140	10.09444714	9.88218689
O	4.48523617	8.88336086	5.06189060
H	4.52956104	9.29210949	5.92023706
H	4.76223040	7.88260174	5.08656073
O	0.62013865	8.92559052	1.54507160
H	1.30037785	8.59018612	2.16273856
H	1.00111389	9.84248257	1.32620680
O	1.78054070	9.29788685	6.23364592
H	1.86547375	0.40296271	5.91601706
H	2.10247111	8.69498253	5.48008728
O	6.77543592	4.89747858	2.46189189
H	6.87780571	4.01121283	2.08833599
H	6.23667479	4.66502857	3.24871945
O	7.24394178	2.79276657	9.76506138
H	7.75595284	2.85897613	8.97547054
H	7.55642462	1.99603236	10.21689320
O	2.08936834	1.88651991	6.16349173
H	3.20734453	1.84682739	6.13331842
H	1.83422160	2.20552278	5.26564693
O	2.50032282	4.45902729	5.52075434
H	2.15134096	3.94728732	6.27348995
H	2.10549331	5.34799862	5.44398737
O	-0.33846453	2.01182318	7.86899471
H	10.17867279	1.95566940	7.13841581
H	0.09965284	1.27528584	8.37236214
O	0.44072741	3.96056867	9.74569702
H	0.21231328	3.23602509	9.09756756
H	9.53086853	3.92900276	10.38937473
O	7.56839180	8.08015823	2.00023985
H	8.34020805	8.61489201	2.25625968
H	7.96775532	7.33972073	1.48312116
O	5.59780550	10.01250744	3.10215330
H	5.86880016	9.13992214	2.71791911
H	5.09174490	9.76528740	3.92396927
O	5.94058514	9.20751667	7.90704489
H	6.33217621	9.09496975	7.06993675
H	6.54370022	9.74803829	8.43938255
O	5.11152220	4.14143896	9.67929173
H	5.68008947	3.44560814	10.02866745
H	4.19346476	4.24658489	10.10090542
O	4.48849201	1.55962169	6.34196138
H	4.95465088	11.74195385	5.52569056
H	4.86686897	2.50512195	6.81474018
O	0.94743991	10.00064850	8.85676384
H	0.99261200	9.60931683	7.98788548
H	1.86442327	10.29464626	8.94966793
O	9.39243126	5.17974329	3.23419666
H	8.40041924	4.98731852	3.22934675
H	9.50245762	5.57089996	2.34569550
O	-0.54891306	6.07652378	8.08862495
H	0.10170506	5.35876083	8.33959007
H	8.43419838	5.62665081	8.04334831
O	2.80395555	4.57713890	0.69670701
H	1.91403902	4.13097477	10.39669228
H	2.61375189	5.53368855	0.43696317
O	4.26179123	0.31925678	10.11034870
H	4.65271139	0.19381024	1.14492881
H	4.79463434	-0.02023347	9.37667370
O	6.99890804	5.54228878	8.93159962
H	6.12221432	5.28207111	9.31820393
H	6.87697124	6.42222691	8.53309727
O	1.25324857	2.88057590	2.96535325
H	0.62117666	3.60525632	3.08591270
H	1.97975719	3.51979280	3.08853030
O	7.73532772	3.27374482	4.66919470
H	7.47560930	2.39040136	5.01648998
H	8.47006416	3.49698734	5.22919989
O	6.34066343	6.85331059	5.79151869
H	6.85705137	6.56207800	5.06837177
H	6.60166836	6.32861185	6.60459328
O	5.25786591	3.63824844	7.20309258
H	5.21529436	3.77149153	8.20830917
H	4.90750313	4.33791828	6.67816162
96
whada
O	5.37355423	2.40465093	3.67544365
H	5.38076448	1.45799506	3.35242343
H	4.64034510	2.88161564	3.27120900
O	1.77139020	0.95766979	2.02177668
H	1.92889440	1.76977026	2.58391690
H	1.04205918	1.25873423	1.40464282
O	1.83374751	6.52913713	4.73018742
H	2.42579794	7.13735533	5.22968531
H	1.20414925	6.18011618	5.46471977
O	8.56285954	0.25536087	4.61129475
H	8.00141811	0.16406755	5.44459629
H	9.34631634	-0.24045043	4.97874832
O	5.52757311	6.69704866	2.70112443
H	4.65833998	6.91367579	2.31079888
H	5.90698290	6.04066372	2.06478786
O	9.73557663	6.13270664	1.04275191
H	10.09576702	7.00534391	1.41222847
H	8.82182407	6.30250311	10.69386196
O	3.29250097	7.28110647	1.10881281
H	2.57831168	7.77206993	1.63309765
H	3.72888637	8.06159592	0.64451557
O	7.96363020	9.87573338	0.16556774
H	7.63736677	9.20555401	0.79520303
H	8.91923809	9.80599785	9.96752357
O	4.26650667	8.46942234	5.14045000
H	4.48298454	9.27470589	5.60365248
H	5.02635336	7.79312611	5.26726675
O	1.08899128	8.17858887	2.35660291
H	1.37184381	7.83426523	3.25123596
H	1.07415140	9.18260288	2.45562434
O	1.42173457	9.53282356	6.36480379
H	1.77479720	0.56863546	6.17373371
H	1.97670960	8.94466114	5.79746914
O	7.05450964	4.77516317	1.76038516
H	7.13207197	4.10013914	1.07375014
H	7.26273108	4.31242847	2.56313181
O	7.44070101	2.50503230	9.84723186
H	7.93808842	2.43501687	8.97614479
H	7.39806366	1.55716479	10.08402538
O	2.22826719	2.42164969	6.00339985
H	3.09533739	2.43983603	6.48085928
H	2.29209614	2.89393950	5.15958166
O	3.92337728	4.94916201	4.79736948
H	3.01399016	5.32542706	4.71355581
H	4.43410730	5.62162924	4.34332085
O	-0.19366819	2.05618024	7.97289610
H	10.43292522	2.21437073	7.42357826
H	0.09883508	1.29763603	8.50944519
O	0.76635689	4.26962614	9.20129013
H	0.15748753	3.50735569	9.06544113
H	10.15064240	5.00362015	9.69116783
O	7.33937740	8.44085503	2.52226520
H	7.89081573	8.65636539	3.29601979
H	6.77475691	7.64516020	2.71946073
O	4.98052740	9.87281322	2.64267898
H	5.93941545	9.45476246	2.54149818
H	4.66023207	9.28375626	3.35711503
O	6.01456070	9.11491585	8.19136047
H	5.73718596	9.66978645	7.41321087
H	6.70943260	9.63180828	8.63521004
O	5.57662201	4.27386475	9.05513668
H	6.00853348	3.45896339	9.50736237
H	4.62161732	4.24146271	9.44243908
O	4.97120476	1.08167565	6.27404404
H	5.44107533	11.01269817	5.44976950
H	4.97694397	2.16788530	6.55830622
O	0.95362639	9.80422020	9.31056786
H	1.14986765	9.56591034	8.40824413
H	1.88926947	10.02967167	9.69547558
O	9.37383556	5.27731085	3.76301169
H	8.66902542	4.60811234	4.01924610
H	9.34626007	5.40453815	2.79196763
O	0.03166496	6.24917173	7.23084497
H	0.47828004	5.52831411	7.70196438
H	8.93493748	5.97832632	7.13186789
O	3.30253410	4.48917150	0.64729613
H	2.46849537	4.21378994	10.12186146
H	3.19882655	5.42801094	0.73281127
O	3.98968720	-0.16918200	9.86862946
H	4.37527370	0.08893500	0.90128464
H	4.72383547	-0.23458260	9.22691154
O	7.03910637	6.49719381	8.92748642
H	6.42543507	5.78535652	9.16182041
H	6.56264210	7.26976871	8.64721870
O	1.81368971	3.19512224	3.21883678
H	1.05382669	3.73291492	3.37830400
H	2.35791802	3.66231346	2.54497933
O	7.85427666	3.16620660	4.69634247
H	8.25873661	2.28304362	4.57136774
H	6.90342903	2.97262311	4.48722315
O	6.71903801	6.80796814	6.14961243
H	6.43947697	6.07114220	5.58392429
H	6.79036570	6.45383406	7.07295418
O	5.12078285	3.49879861	6.79046011
H	5.26413298	3.78682804	7.76925564
H	4.70656538	4.14975882	6.18416452
96
whada
O	5.12863302	1.34648466	4.45816708
H	4.78202868	0.43215278	4.63892746
H	4.46870518	1.69626594	3.77315879
O	1.52442276	-1.11849940	3.63729310
H	1.50272179	-0.12554775	3.67152143
H	0.74288261	-1.41880250	3.07103515
O	1.28336334	6.17584991	6.04713154
H	0.93087900	5.87552834	5.14986277
H	0.93632317	4.70641136	7.16770124
O	8.04021263	-1.44139874	6.25591469
H	7.15736961	-1.64100063	6.72443628
H	8.79657269	-1.65220678	6.81832933
O	5.15775776	5.99792671	4.19153118
H	4.47009611	6.70665312	4.24331284
H	4.75287867	5.45465183	3.45593929
O	7.49605989	4.28998709	1.44595647
H	7.33373737	3.34829593	1.77420497
H	6.56419325	5.21691847	10.32941628
O	3.47928786	4.96908855	2.00953388
H	2.59075117	4.81248474	2.35139489
H	3.55609727	6.77303171	1.76640630
O	9.32963276	8.15997314	1.78590441
H	8.68033886	7.85265064	2.41305661
H	9.48260689	7.30519104	11.01367474
O	5.43023157	8.01885033	7.23979902
H	5.22679853	8.27264214	8.15771198
H	5.02300739	7.11162758	7.11935949
O	0.21515003	5.38602066	3.80031753
H	-0.08589750	4.47723198	4.02666664
H	-0.60500097	5.84655046	3.70742512
O	0.55376208	8.46019554	7.34281921
H	0.84509259	-0.45054513	7.32011747
H	0.86290467	7.96197176	6.53492260
O	7.16897917	2.02790594	2.94424224
H	7.30240345	1.33453035	2.26023126
H	6.40246296	1.74817622	3.50247645
O	7.50349855	0.16563179	10.82750702
H	7.79708004	0.63945055	9.98495293
H	8.28463840	-0.36969680	11.11374760
O	1.63959539	1.36348629	7.25155306
H	1.99771869	1.24851143	6.37947369
H	1.30053520	2.28248739	7.42271376
O	3.91280627	5.76196384	6.91518974
H	2.26426268	5.97890282	6.11939573
H	4.29531765	5.03102779	6.34454298
O	-0.75788778	1.37123144	9.10040379
H	8.61051178	1.46909547	8.23275280
H	-0.07235122	0.71553862	8.84054947
O	0.01753661	3.77903557	10.41407490
H	-0.21789826	2.93165755	9.95696068
H	8.38862896	4.18013716	10.88105202
O	7.67162466	6.84728718	3.70090961
H	7.77690268	7.31621647	4.57313442
H	6.79895258	6.30242395	3.83072042
O	4.17924738	8.81570435	4.86709690
H	3.19102335	8.59269524	4.77831364
H	4.52616024	8.54996872	5.70807409
O	5.10076571	8.97437954	9.77048969
H	4.27585745	10.57159805	9.40488338
H	5.95046759	9.27190781	10.24389458
O	3.86566997	4.53120565	9.23015213
H	3.80859494	3.58778787	9.19580936
H	3.40818071	4.83492804	10.80997944
O	3.98234129	1.52873659	8.91715431
H	3.19949365	11.09308910	8.41681194
H	5.41633701	2.26550269	5.92107248
O	0.67534280	6.43483973	9.73373604
H	0.53138918	6.87337112	8.85888672
H	1.53581333	6.73560190	10.12107944
O	9.13305569	2.90023994	4.49428272
H	8.96669292	2.53400135	5.41688156
H	8.48425388	2.48146224	3.92142749
O	0.64090276	3.88271737	7.64730072
H	0.50184840	4.39950180	9.78780460
H	9.51992226	3.97291350	7.50834274
O	3.79699087	2.17185235	2.31739879
H	3.96370268	1.65893173	11.38045311
H	4.07041073	3.11268187	2.06464577
O	3.17127228	-2.19466853	11.45319366
H	2.60812140	-1.88676000	2.39036393
H	4.58996773	-1.35152709	10.42387009
O	6.06857443	5.56424141	9.63882351
H	4.88292933	4.78693295	9.24686909
H	5.81137037	6.49727249	9.80833435
O	1.62372053	1.53350151	3.99832559
H	0.82703209	2.14441180	3.93659997
H	2.20704317	1.72745097	3.23885727
O	8.03484917	1.11714923	6.61975384
H	7.89839745	0.15602465	6.46166277
H	7.11472368	1.46465027	6.59874344
O	7.62810850	4.79712391	7.33408833
H	6.97509956	4.04963207	7.03594494
H	7.09300327	5.11572599	8.07532024
O	5.25610781	2.91688728	6.66777229
H	4.90754557	2.42843866	7.46930408
H	3.69261980	5.24547195	7.75966644
